Program Version,EnergyPlus, Version 23.2.0-7636e6b3e9, YMD=2025.12.16 19:29
! This file shows details about the branches, nodes, and other
! elements of the flow connections.
! This file is intended for use in "debugging" potential problems
! that may also be detected by the program, but may be more easily
! identified by "eye".
! This file is also intended to support software which draws a
! schematic diagram of the HVAC system.
! ===============================================================
! #Nodes,<Number of Unique Nodes>
 #Nodes,250
! <Node>,<NodeNumber>,<Node Name>,<Node Fluid Type>,<# Times Node Referenced After Definition>
 Node,1,VAV SYS 1 COOLING COIL OUTLET,Air,6
 Node,2,VAV SYS 1 MIXED AIR OUTLET,Air,6
 Node,3,MAIN BOILER HW OUTLET,Water,3
 Node,4,HOT WATER LOOP HW SUPPLY OUTLET,Water,5
 Node,5,MAIN CHILLER CHW OUTLET,Water,3
 Node,6,CHILLED WATER LOOP CHW SUPPLY OUTLET,Water,5
 Node,7,MAIN TOWER CNDW OUTLET,Water,3
 Node,8,CHILLED WATER LOOP CNDW SUPPLY OUTLET,Water,5
 Node,9,THERMAL ZONE: ZONE1 REHEAT COIL HW INLET,Water,1
 Node,10,THERMAL ZONE: ZONE1 REHEAT COIL HW OUTLET,Water,1
 Node,11,THERMAL ZONE: ZONE2 REHEAT COIL HW INLET,Water,1
 Node,12,THERMAL ZONE: ZONE2 REHEAT COIL HW OUTLET,Water,1
 Node,13,THERMAL ZONE: ZONE3 REHEAT COIL HW INLET,Water,1
 Node,14,THERMAL ZONE: ZONE3 REHEAT COIL HW OUTLET,Water,1
 Node,15,THERMAL ZONE: ZONE4 REHEAT COIL HW INLET,Water,1
 Node,16,THERMAL ZONE: ZONE4 REHEAT COIL HW OUTLET,Water,1
 Node,17,THERMAL ZONE: ZONE5 REHEAT COIL HW INLET,Water,1
 Node,18,THERMAL ZONE: ZONE5 REHEAT COIL HW OUTLET,Water,1
 Node,19,THERMAL ZONE: ZONE6 REHEAT COIL HW INLET,Water,1
 Node,20,THERMAL ZONE: ZONE6 REHEAT COIL HW OUTLET,Water,1
 Node,21,THERMAL ZONE: ZONE7 REHEAT COIL HW INLET,Water,1
 Node,22,THERMAL ZONE: ZONE7 REHEAT COIL HW OUTLET,Water,1
 Node,23,THERMAL ZONE: ZONE8 REHEAT COIL HW INLET,Water,1
 Node,24,THERMAL ZONE: ZONE8 REHEAT COIL HW OUTLET,Water,1
 Node,25,THERMAL ZONE: ZONE9 REHEAT COIL HW INLET,Water,1
 Node,26,THERMAL ZONE: ZONE9 REHEAT COIL HW OUTLET,Water,1
 Node,27,THERMAL ZONE: ZONE10 REHEAT COIL HW INLET,Water,1
 Node,28,THERMAL ZONE: ZONE10 REHEAT COIL HW OUTLET,Water,1
 Node,29,THERMAL ZONE: ZONE11 REHEAT COIL HW INLET,Water,1
 Node,30,THERMAL ZONE: ZONE11 REHEAT COIL HW OUTLET,Water,1
 Node,31,THERMAL ZONE: ZONE12 REHEAT COIL HW INLET,Water,1
 Node,32,THERMAL ZONE: ZONE12 REHEAT COIL HW OUTLET,Water,1
 Node,33,THERMAL ZONE: ZONE13 REHEAT COIL HW INLET,Water,1
 Node,34,THERMAL ZONE: ZONE13 REHEAT COIL HW OUTLET,Water,1
 Node,35,THERMAL ZONE: ZONE14 REHEAT COIL HW INLET,Water,1
 Node,36,THERMAL ZONE: ZONE14 REHEAT COIL HW OUTLET,Water,1
 Node,37,THERMAL ZONE: ZONE15 REHEAT COIL HW INLET,Water,1
 Node,38,THERMAL ZONE: ZONE15 REHEAT COIL HW OUTLET,Water,1
 Node,39,THERMAL ZONE: ZONE16 REHEAT COIL HW INLET,Water,1
 Node,40,THERMAL ZONE: ZONE16 REHEAT COIL HW OUTLET,Water,1
 Node,41,THERMAL ZONE: ZONE17 REHEAT COIL HW INLET,Water,1
 Node,42,THERMAL ZONE: ZONE17 REHEAT COIL HW OUTLET,Water,1
 Node,43,THERMAL ZONE: ZONE18 REHEAT COIL HW INLET,Water,1
 Node,44,THERMAL ZONE: ZONE18 REHEAT COIL HW OUTLET,Water,1
 Node,45,THERMAL ZONE: ZONE19 REHEAT COIL HW INLET,Water,1
 Node,46,THERMAL ZONE: ZONE19 REHEAT COIL HW OUTLET,Water,1
 Node,47,THERMAL ZONE: ZONE20 REHEAT COIL HW INLET,Water,1
 Node,48,THERMAL ZONE: ZONE20 REHEAT COIL HW OUTLET,Water,1
 Node,49,THERMAL ZONE: ZONE21 REHEAT COIL HW INLET,Water,1
 Node,50,THERMAL ZONE: ZONE21 REHEAT COIL HW OUTLET,Water,1
 Node,51,THERMAL ZONE: ZONE22 REHEAT COIL HW INLET,Water,1
 Node,52,THERMAL ZONE: ZONE22 REHEAT COIL HW OUTLET,Water,1
 Node,53,THERMAL ZONE: ZONE23 REHEAT COIL HW INLET,Water,1
 Node,54,THERMAL ZONE: ZONE23 REHEAT COIL HW OUTLET,Water,1
 Node,55,THERMAL ZONE: ZONE24 REHEAT COIL HW INLET,Water,1
 Node,56,THERMAL ZONE: ZONE24 REHEAT COIL HW OUTLET,Water,1
 Node,57,THERMAL ZONE: ZONE25 REHEAT COIL HW INLET,Water,1
 Node,58,THERMAL ZONE: ZONE25 REHEAT COIL HW OUTLET,Water,1
 Node,59,THERMAL ZONE: ZONE26 REHEAT COIL HW INLET,Water,1
 Node,60,THERMAL ZONE: ZONE26 REHEAT COIL HW OUTLET,Water,1
 Node,61,THERMAL ZONE: ZONE27 REHEAT COIL HW INLET,Water,1
 Node,62,THERMAL ZONE: ZONE27 REHEAT COIL HW OUTLET,Water,1
 Node,63,VAV SYS 1 AIR LOOP INLET,Air,2
 Node,64,VAV SYS 1 RETURN FAN OUTLET,Air,4
 Node,65,VAV SYS 1 HEATING COIL OUTLET,Air,7
 Node,66,VAV SYS 1 SUPPLY FAN OUTLET,Air,6
 Node,67,VAV SYS 1 COOLING COIL CHW INLET,Water,2
 Node,68,VAV SYS 1 COOLING COIL CHW OUTLET,Water,1
 Node,69,VAV SYS 1 HEATING COIL HW INLET,Water,2
 Node,70,VAV SYS 1 HEATING COIL HW OUTLET,Water,1
 Node,71,MAIN BOILER HW INLET,Water,1
 Node,72,MAIN CHILLER CHW INLET,Water,1
 Node,73,MAIN CHILLER CND INLET,Water,1
 Node,74,MAIN CHILLER CND OUTLET,Water,1
 Node,75,MAIN TOWER CNDW INLET,Water,1
 Node,76,HOT WATER LOOP HW SUPPLY BYPASS INLET,Water,1
 Node,77,HOT WATER LOOP HW SUPPLY BYPASS OUTLET,Water,1
 Node,78,HOT WATER LOOP HW SUPPLY INLET,Water,2
 Node,79,HOT WATER LOOP HW PUMP OUTLET,Water,1
 Node,80,HOT WATER LOOP HW SUPPLY OUTLET PIPE INLET,Water,1
 Node,81,HOT WATER LOOP HW DEMAND INLET,Water,2
 Node,82,HOT WATER LOOP HW DEMAND INLET PIPE OUTLET,Water,1
 Node,83,HOT WATER LOOP HW DEMAND BYPASS INLET,Water,1
 Node,84,HOT WATER LOOP HW DEMAND BYPASS OUTLET,Water,1
 Node,85,HOT WATER LOOP HW DEMAND OUTLET PIPE INLET,Water,1
 Node,86,HOT WATER LOOP HW DEMAND OUTLET,Water,2
 Node,87,CHILLED WATER LOOP CHW SUPPLY BYPASS INLET,Water,1
 Node,88,CHILLED WATER LOOP CHW SUPPLY BYPASS OUTLET,Water,1
 Node,89,CHILLED WATER LOOP CHW SUPPLY INLET,Water,2
 Node,90,CHILLED WATER LOOP CHW PUMP OUTLET,Water,1
 Node,91,CHILLED WATER LOOP CHW SUPPLY OUTLET PIPE INLET,Water,1
 Node,92,CHILLED WATER LOOP CHW DEMAND INLET,Water,2
 Node,93,CHILLED WATER LOOP CHW DEMAND INLET PIPE OUTLET,Water,1
 Node,94,CHILLED WATER LOOP CHW DEMAND BYPASS INLET,Water,1
 Node,95,CHILLED WATER LOOP CHW DEMAND BYPASS OUTLET,Water,1
 Node,96,CHILLED WATER LOOP CHW DEMAND OUTLET PIPE INLET,Water,1
 Node,97,CHILLED WATER LOOP CHW DEMAND OUTLET,Water,2
 Node,98,CHILLED WATER LOOP CNDW SUPPLY INLET,Water,2
 Node,99,CHILLED WATER LOOP CNDW PUMP OUTLET,Water,1
 Node,100,CHILLED WATER LOOP CNDW SUPPLY OUTLET PIPE INLET,Water,1
 Node,101,CHILLED WATER LOOP CNDW SUPPLY BYPASS INLET,Water,1
 Node,102,CHILLED WATER LOOP CNDW SUPPLY BYPASS OUTLET,Water,1
 Node,103,CHILLED WATER LOOP CNDW DEMAND INLET,Water,2
 Node,104,CHILLED WATER LOOP CNDW DEMAND INLET PIPE OUTLET,Water,1
 Node,105,CHILLED WATER LOOP CNDW DEMAND BYPASS INLET,Water,1
 Node,106,CHILLED WATER LOOP CNDW DEMAND BYPASS OUTLET,Water,1
 Node,107,CHILLED WATER LOOP CNDW DEMAND OUTLET PIPE INLET,Water,1
 Node,108,CHILLED WATER LOOP CNDW DEMAND OUTLET,Water,2
 Node,109,THERMAL ZONE: ZONE1 ZONE AIR NODE,Air,0
 Node,110,THERMAL ZONE: ZONE1 SUPPLY INLET,Air,3
 Node,111,THERMAL ZONE: ZONE1 RETURN OUTLET,Air,1
 Node,112,THERMAL ZONE: ZONE2 ZONE AIR NODE,Air,0
 Node,113,THERMAL ZONE: ZONE2 SUPPLY INLET,Air,3
 Node,114,THERMAL ZONE: ZONE2 RETURN OUTLET,Air,1
 Node,115,THERMAL ZONE: ZONE3 ZONE AIR NODE,Air,0
 Node,116,THERMAL ZONE: ZONE3 SUPPLY INLET,Air,3
 Node,117,THERMAL ZONE: ZONE3 RETURN OUTLET,Air,1
 Node,118,THERMAL ZONE: ZONE4 ZONE AIR NODE,Air,0
 Node,119,THERMAL ZONE: ZONE4 SUPPLY INLET,Air,3
 Node,120,THERMAL ZONE: ZONE4 RETURN OUTLET,Air,1
 Node,121,THERMAL ZONE: ZONE5 ZONE AIR NODE,Air,0
 Node,122,THERMAL ZONE: ZONE5 SUPPLY INLET,Air,3
 Node,123,THERMAL ZONE: ZONE5 RETURN OUTLET,Air,1
 Node,124,THERMAL ZONE: ZONE6 ZONE AIR NODE,Air,0
 Node,125,THERMAL ZONE: ZONE6 SUPPLY INLET,Air,3
 Node,126,THERMAL ZONE: ZONE6 RETURN OUTLET,Air,1
 Node,127,THERMAL ZONE: ZONE7 ZONE AIR NODE,Air,0
 Node,128,THERMAL ZONE: ZONE7 SUPPLY INLET,Air,3
 Node,129,THERMAL ZONE: ZONE7 RETURN OUTLET,Air,1
 Node,130,THERMAL ZONE: ZONE8 ZONE AIR NODE,Air,0
 Node,131,THERMAL ZONE: ZONE8 SUPPLY INLET,Air,3
 Node,132,THERMAL ZONE: ZONE8 RETURN OUTLET,Air,1
 Node,133,THERMAL ZONE: ZONE9 ZONE AIR NODE,Air,0
 Node,134,THERMAL ZONE: ZONE9 SUPPLY INLET,Air,3
 Node,135,THERMAL ZONE: ZONE9 RETURN OUTLET,Air,1
 Node,136,THERMAL ZONE: ZONE10 ZONE AIR NODE,Air,0
 Node,137,THERMAL ZONE: ZONE10 SUPPLY INLET,Air,3
 Node,138,THERMAL ZONE: ZONE10 RETURN OUTLET,Air,1
 Node,139,THERMAL ZONE: ZONE11 ZONE AIR NODE,Air,0
 Node,140,THERMAL ZONE: ZONE11 SUPPLY INLET,Air,3
 Node,141,THERMAL ZONE: ZONE11 RETURN OUTLET,Air,1
 Node,142,THERMAL ZONE: ZONE12 ZONE AIR NODE,Air,0
 Node,143,THERMAL ZONE: ZONE12 SUPPLY INLET,Air,3
 Node,144,THERMAL ZONE: ZONE12 RETURN OUTLET,Air,1
 Node,145,THERMAL ZONE: ZONE13 ZONE AIR NODE,Air,0
 Node,146,THERMAL ZONE: ZONE13 SUPPLY INLET,Air,3
 Node,147,THERMAL ZONE: ZONE13 RETURN OUTLET,Air,1
 Node,148,THERMAL ZONE: ZONE14 ZONE AIR NODE,Air,0
 Node,149,THERMAL ZONE: ZONE14 SUPPLY INLET,Air,3
 Node,150,THERMAL ZONE: ZONE14 RETURN OUTLET,Air,1
 Node,151,THERMAL ZONE: ZONE15 ZONE AIR NODE,Air,0
 Node,152,THERMAL ZONE: ZONE15 SUPPLY INLET,Air,3
 Node,153,THERMAL ZONE: ZONE15 RETURN OUTLET,Air,1
 Node,154,THERMAL ZONE: ZONE16 ZONE AIR NODE,Air,0
 Node,155,THERMAL ZONE: ZONE16 SUPPLY INLET,Air,3
 Node,156,THERMAL ZONE: ZONE16 RETURN OUTLET,Air,1
 Node,157,THERMAL ZONE: ZONE17 ZONE AIR NODE,Air,0
 Node,158,THERMAL ZONE: ZONE17 SUPPLY INLET,Air,3
 Node,159,THERMAL ZONE: ZONE17 RETURN OUTLET,Air,1
 Node,160,THERMAL ZONE: ZONE18 ZONE AIR NODE,Air,0
 Node,161,THERMAL ZONE: ZONE18 SUPPLY INLET,Air,3
 Node,162,THERMAL ZONE: ZONE18 RETURN OUTLET,Air,1
 Node,163,THERMAL ZONE: ZONE19 ZONE AIR NODE,Air,0
 Node,164,THERMAL ZONE: ZONE19 SUPPLY INLET,Air,3
 Node,165,THERMAL ZONE: ZONE19 RETURN OUTLET,Air,1
 Node,166,THERMAL ZONE: ZONE20 ZONE AIR NODE,Air,0
 Node,167,THERMAL ZONE: ZONE20 SUPPLY INLET,Air,3
 Node,168,THERMAL ZONE: ZONE20 RETURN OUTLET,Air,1
 Node,169,THERMAL ZONE: ZONE21 ZONE AIR NODE,Air,0
 Node,170,THERMAL ZONE: ZONE21 SUPPLY INLET,Air,3
 Node,171,THERMAL ZONE: ZONE21 RETURN OUTLET,Air,1
 Node,172,THERMAL ZONE: ZONE22 ZONE AIR NODE,Air,0
 Node,173,THERMAL ZONE: ZONE22 SUPPLY INLET,Air,3
 Node,174,THERMAL ZONE: ZONE22 RETURN OUTLET,Air,1
 Node,175,THERMAL ZONE: ZONE23 ZONE AIR NODE,Air,0
 Node,176,THERMAL ZONE: ZONE23 SUPPLY INLET,Air,3
 Node,177,THERMAL ZONE: ZONE23 RETURN OUTLET,Air,1
 Node,178,THERMAL ZONE: ZONE24 ZONE AIR NODE,Air,0
 Node,179,THERMAL ZONE: ZONE24 SUPPLY INLET,Air,3
 Node,180,THERMAL ZONE: ZONE24 RETURN OUTLET,Air,1
 Node,181,THERMAL ZONE: ZONE25 ZONE AIR NODE,Air,0
 Node,182,THERMAL ZONE: ZONE25 SUPPLY INLET,Air,3
 Node,183,THERMAL ZONE: ZONE25 RETURN OUTLET,Air,1
 Node,184,THERMAL ZONE: ZONE26 ZONE AIR NODE,Air,0
 Node,185,THERMAL ZONE: ZONE26 SUPPLY INLET,Air,3
 Node,186,THERMAL ZONE: ZONE26 RETURN OUTLET,Air,1
 Node,187,THERMAL ZONE: ZONE27 ZONE AIR NODE,Air,0
 Node,188,THERMAL ZONE: ZONE27 SUPPLY INLET,Air,3
 Node,189,THERMAL ZONE: ZONE27 RETURN OUTLET,Air,1
 Node,190,VAV SYS 1 SUPPLY PATH INLET,Air,4
 Node,191,VAV SYS 1 RETURN AIR OUTLET,Air,2
 Node,192,VAV SYS 1 OUTSIDE AIR INLET,Air,2
 Node,193,MAIN TOWER COOLING TOWER OUTDOOR AIR INLET NODE,Air,1
 Node,194,CHILLED WATER LOOP OUTSIDE AIR SENSOR,Air,1
 Node,195,THERMAL ZONE: ZONE1 ZONE EQUIP INLET,Air,1
 Node,196,THERMAL ZONE: ZONE2 ZONE EQUIP INLET,Air,1
 Node,197,THERMAL ZONE: ZONE3 ZONE EQUIP INLET,Air,1
 Node,198,THERMAL ZONE: ZONE4 ZONE EQUIP INLET,Air,1
 Node,199,THERMAL ZONE: ZONE5 ZONE EQUIP INLET,Air,1
 Node,200,THERMAL ZONE: ZONE6 ZONE EQUIP INLET,Air,1
 Node,201,THERMAL ZONE: ZONE7 ZONE EQUIP INLET,Air,1
 Node,202,THERMAL ZONE: ZONE8 ZONE EQUIP INLET,Air,1
 Node,203,THERMAL ZONE: ZONE9 ZONE EQUIP INLET,Air,1
 Node,204,THERMAL ZONE: ZONE10 ZONE EQUIP INLET,Air,1
 Node,205,THERMAL ZONE: ZONE11 ZONE EQUIP INLET,Air,1
 Node,206,THERMAL ZONE: ZONE12 ZONE EQUIP INLET,Air,1
 Node,207,THERMAL ZONE: ZONE13 ZONE EQUIP INLET,Air,1
 Node,208,THERMAL ZONE: ZONE14 ZONE EQUIP INLET,Air,1
 Node,209,THERMAL ZONE: ZONE15 ZONE EQUIP INLET,Air,1
 Node,210,THERMAL ZONE: ZONE16 ZONE EQUIP INLET,Air,1
 Node,211,THERMAL ZONE: ZONE17 ZONE EQUIP INLET,Air,1
 Node,212,THERMAL ZONE: ZONE18 ZONE EQUIP INLET,Air,1
 Node,213,THERMAL ZONE: ZONE19 ZONE EQUIP INLET,Air,1
 Node,214,THERMAL ZONE: ZONE20 ZONE EQUIP INLET,Air,1
 Node,215,THERMAL ZONE: ZONE21 ZONE EQUIP INLET,Air,1
 Node,216,THERMAL ZONE: ZONE22 ZONE EQUIP INLET,Air,1
 Node,217,THERMAL ZONE: ZONE23 ZONE EQUIP INLET,Air,1
 Node,218,THERMAL ZONE: ZONE24 ZONE EQUIP INLET,Air,1
 Node,219,THERMAL ZONE: ZONE25 ZONE EQUIP INLET,Air,1
 Node,220,THERMAL ZONE: ZONE26 ZONE EQUIP INLET,Air,1
 Node,221,THERMAL ZONE: ZONE27 ZONE EQUIP INLET,Air,1
 Node,222,THERMAL ZONE: ZONE1 DAMPER OUTLET,Air,1
 Node,223,THERMAL ZONE: ZONE2 DAMPER OUTLET,Air,1
 Node,224,THERMAL ZONE: ZONE3 DAMPER OUTLET,Air,1
 Node,225,THERMAL ZONE: ZONE4 DAMPER OUTLET,Air,1
 Node,226,THERMAL ZONE: ZONE5 DAMPER OUTLET,Air,1
 Node,227,THERMAL ZONE: ZONE6 DAMPER OUTLET,Air,1
 Node,228,THERMAL ZONE: ZONE7 DAMPER OUTLET,Air,1
 Node,229,THERMAL ZONE: ZONE8 DAMPER OUTLET,Air,1
 Node,230,THERMAL ZONE: ZONE9 DAMPER OUTLET,Air,1
 Node,231,THERMAL ZONE: ZONE10 DAMPER OUTLET,Air,1
 Node,232,THERMAL ZONE: ZONE11 DAMPER OUTLET,Air,1
 Node,233,THERMAL ZONE: ZONE12 DAMPER OUTLET,Air,1
 Node,234,THERMAL ZONE: ZONE13 DAMPER OUTLET,Air,1
 Node,235,THERMAL ZONE: ZONE14 DAMPER OUTLET,Air,1
 Node,236,THERMAL ZONE: ZONE15 DAMPER OUTLET,Air,1
 Node,237,THERMAL ZONE: ZONE16 DAMPER OUTLET,Air,1
 Node,238,THERMAL ZONE: ZONE17 DAMPER OUTLET,Air,1
 Node,239,THERMAL ZONE: ZONE18 DAMPER OUTLET,Air,1
 Node,240,THERMAL ZONE: ZONE19 DAMPER OUTLET,Air,1
 Node,241,THERMAL ZONE: ZONE20 DAMPER OUTLET,Air,1
 Node,242,THERMAL ZONE: ZONE21 DAMPER OUTLET,Air,1
 Node,243,THERMAL ZONE: ZONE22 DAMPER OUTLET,Air,1
 Node,244,THERMAL ZONE: ZONE23 DAMPER OUTLET,Air,1
 Node,245,THERMAL ZONE: ZONE24 DAMPER OUTLET,Air,1
 Node,246,THERMAL ZONE: ZONE25 DAMPER OUTLET,Air,1
 Node,247,THERMAL ZONE: ZONE26 DAMPER OUTLET,Air,1
 Node,248,THERMAL ZONE: ZONE27 DAMPER OUTLET,Air,1
 Node,249,THERMAL ZONE: ZONE28 ZONE AIR NODE,Air,0
 Node,250,VAV SYS 1 RELIEF AIR OUTLET,Air,1
! ===============================================================
! Suspicious nodes have 0 references.  It is normal for some nodes, however.
! Listing nodes with 0 references (culled from previous list):
! <Suspicious Node>,<NodeNumber>,<Node Name>,<Node Fluid Type>,<# Times Node Referenced After Definition>
 Suspicious Node,109,THERMAL ZONE: ZONE1 ZONE AIR NODE,Air,0
 Suspicious Node,112,THERMAL ZONE: ZONE2 ZONE AIR NODE,Air,0
 Suspicious Node,115,THERMAL ZONE: ZONE3 ZONE AIR NODE,Air,0
 Suspicious Node,118,THERMAL ZONE: ZONE4 ZONE AIR NODE,Air,0
 Suspicious Node,121,THERMAL ZONE: ZONE5 ZONE AIR NODE,Air,0
 Suspicious Node,124,THERMAL ZONE: ZONE6 ZONE AIR NODE,Air,0
 Suspicious Node,127,THERMAL ZONE: ZONE7 ZONE AIR NODE,Air,0
 Suspicious Node,130,THERMAL ZONE: ZONE8 ZONE AIR NODE,Air,0
 Suspicious Node,133,THERMAL ZONE: ZONE9 ZONE AIR NODE,Air,0
 Suspicious Node,136,THERMAL ZONE: ZONE10 ZONE AIR NODE,Air,0
 Suspicious Node,139,THERMAL ZONE: ZONE11 ZONE AIR NODE,Air,0
 Suspicious Node,142,THERMAL ZONE: ZONE12 ZONE AIR NODE,Air,0
 Suspicious Node,145,THERMAL ZONE: ZONE13 ZONE AIR NODE,Air,0
 Suspicious Node,148,THERMAL ZONE: ZONE14 ZONE AIR NODE,Air,0
 Suspicious Node,151,THERMAL ZONE: ZONE15 ZONE AIR NODE,Air,0
 Suspicious Node,154,THERMAL ZONE: ZONE16 ZONE AIR NODE,Air,0
 Suspicious Node,157,THERMAL ZONE: ZONE17 ZONE AIR NODE,Air,0
 Suspicious Node,160,THERMAL ZONE: ZONE18 ZONE AIR NODE,Air,0
 Suspicious Node,163,THERMAL ZONE: ZONE19 ZONE AIR NODE,Air,0
 Suspicious Node,166,THERMAL ZONE: ZONE20 ZONE AIR NODE,Air,0
 Suspicious Node,169,THERMAL ZONE: ZONE21 ZONE AIR NODE,Air,0
 Suspicious Node,172,THERMAL ZONE: ZONE22 ZONE AIR NODE,Air,0
 Suspicious Node,175,THERMAL ZONE: ZONE23 ZONE AIR NODE,Air,0
 Suspicious Node,178,THERMAL ZONE: ZONE24 ZONE AIR NODE,Air,0
 Suspicious Node,181,THERMAL ZONE: ZONE25 ZONE AIR NODE,Air,0
 Suspicious Node,184,THERMAL ZONE: ZONE26 ZONE AIR NODE,Air,0
 Suspicious Node,187,THERMAL ZONE: ZONE27 ZONE AIR NODE,Air,0
 Suspicious Node,249,THERMAL ZONE: ZONE28 ZONE AIR NODE,Air,0
! ===============================================================
! <#Branch Lists>,<Number of Branch Lists>
 #Branch Lists,7
! <Branch List>,<Branch List Count>,<Branch List Name>,<Loop Name>,<Loop Type>,<Number of Branches>
! <Branch>,<Branch Count>,<Branch Name>,<Loop Name>,<Loop Type>,<Branch Inlet Node Name>,<Branch Outlet Node Name>
 Branch List,1,VAV SYS 1 BRANCHES,VAV SYS 1,Air,1
   Branch,1,VAV SYS 1 MAIN BRANCH,VAV SYS 1,Air,VAV SYS 1 AIR LOOP INLET,VAV SYS 1 SUPPLY FAN OUTLET
 Branch List,2,HOT WATER LOOP HW SUPPLY SIDE BRANCHES,HOT WATER LOOP HOT WATER LOOP,Plant Supply,4
   Branch,1,HOT WATER LOOP HW SUPPLY INLET BRANCH,HOT WATER LOOP HOT WATER LOOP,Plant Supply,HOT WATER LOOP HW SUPPLY INLET,HOT WATER LOOP HW PUMP OUTLET
   Branch,2,MAIN BOILER HW BRANCH,HOT WATER LOOP HOT WATER LOOP,Plant Supply,MAIN BOILER HW INLET,MAIN BOILER HW OUTLET
   Branch,3,HOT WATER LOOP HW SUPPLY BYPASS BRANCH,HOT WATER LOOP HOT WATER LOOP,Plant Supply,HOT WATER LOOP HW SUPPLY BYPASS INLET,HOT WATER LOOP HW SUPPLY BYPASS OUTLET
   Branch,4,HOT WATER LOOP HW SUPPLY OUTLET BRANCH,HOT WATER LOOP HOT WATER LOOP,Plant Supply,HOT WATER LOOP HW SUPPLY OUTLET PIPE INLET,HOT WATER LOOP HW SUPPLY OUTLET
 Branch List,3,HOT WATER LOOP HW DEMAND SIDE BRANCHES,HOT WATER LOOP HOT WATER LOOP,Plant Demand,31
   Branch,1,HOT WATER LOOP HW DEMAND INLET BRANCH,HOT WATER LOOP HOT WATER LOOP,Plant Demand,HOT WATER LOOP HW DEMAND INLET,HOT WATER LOOP HW DEMAND INLET PIPE OUTLET
   Branch,2,THERMAL ZONE: ZONE1 REHEAT COIL HW BRANCH,HOT WATER LOOP HOT WATER LOOP,Plant Demand,THERMAL ZONE: ZONE1 REHEAT COIL HW INLET,THERMAL ZONE: ZONE1 REHEAT COIL HW OUTLET
   Branch,3,THERMAL ZONE: ZONE2 REHEAT COIL HW BRANCH,HOT WATER LOOP HOT WATER LOOP,Plant Demand,THERMAL ZONE: ZONE2 REHEAT COIL HW INLET,THERMAL ZONE: ZONE2 REHEAT COIL HW OUTLET
   Branch,4,THERMAL ZONE: ZONE3 REHEAT COIL HW BRANCH,HOT WATER LOOP HOT WATER LOOP,Plant Demand,THERMAL ZONE: ZONE3 REHEAT COIL HW INLET,THERMAL ZONE: ZONE3 REHEAT COIL HW OUTLET
   Branch,5,THERMAL ZONE: ZONE4 REHEAT COIL HW BRANCH,HOT WATER LOOP HOT WATER LOOP,Plant Demand,THERMAL ZONE: ZONE4 REHEAT COIL HW INLET,THERMAL ZONE: ZONE4 REHEAT COIL HW OUTLET
   Branch,6,THERMAL ZONE: ZONE5 REHEAT COIL HW BRANCH,HOT WATER LOOP HOT WATER LOOP,Plant Demand,THERMAL ZONE: ZONE5 REHEAT COIL HW INLET,THERMAL ZONE: ZONE5 REHEAT COIL HW OUTLET
   Branch,7,THERMAL ZONE: ZONE6 REHEAT COIL HW BRANCH,HOT WATER LOOP HOT WATER LOOP,Plant Demand,THERMAL ZONE: ZONE6 REHEAT COIL HW INLET,THERMAL ZONE: ZONE6 REHEAT COIL HW OUTLET
   Branch,8,THERMAL ZONE: ZONE7 REHEAT COIL HW BRANCH,HOT WATER LOOP HOT WATER LOOP,Plant Demand,THERMAL ZONE: ZONE7 REHEAT COIL HW INLET,THERMAL ZONE: ZONE7 REHEAT COIL HW OUTLET
   Branch,9,THERMAL ZONE: ZONE8 REHEAT COIL HW BRANCH,HOT WATER LOOP HOT WATER LOOP,Plant Demand,THERMAL ZONE: ZONE8 REHEAT COIL HW INLET,THERMAL ZONE: ZONE8 REHEAT COIL HW OUTLET
   Branch,10,THERMAL ZONE: ZONE9 REHEAT COIL HW BRANCH,HOT WATER LOOP HOT WATER LOOP,Plant Demand,THERMAL ZONE: ZONE9 REHEAT COIL HW INLET,THERMAL ZONE: ZONE9 REHEAT COIL HW OUTLET
   Branch,11,THERMAL ZONE: ZONE10 REHEAT COIL HW BRANCH,HOT WATER LOOP HOT WATER LOOP,Plant Demand,THERMAL ZONE: ZONE10 REHEAT COIL HW INLET,THERMAL ZONE: ZONE10 REHEAT COIL HW OUTLET
   Branch,12,THERMAL ZONE: ZONE11 REHEAT COIL HW BRANCH,HOT WATER LOOP HOT WATER LOOP,Plant Demand,THERMAL ZONE: ZONE11 REHEAT COIL HW INLET,THERMAL ZONE: ZONE11 REHEAT COIL HW OUTLET
   Branch,13,THERMAL ZONE: ZONE12 REHEAT COIL HW BRANCH,HOT WATER LOOP HOT WATER LOOP,Plant Demand,THERMAL ZONE: ZONE12 REHEAT COIL HW INLET,THERMAL ZONE: ZONE12 REHEAT COIL HW OUTLET
   Branch,14,THERMAL ZONE: ZONE13 REHEAT COIL HW BRANCH,HOT WATER LOOP HOT WATER LOOP,Plant Demand,THERMAL ZONE: ZONE13 REHEAT COIL HW INLET,THERMAL ZONE: ZONE13 REHEAT COIL HW OUTLET
   Branch,15,THERMAL ZONE: ZONE14 REHEAT COIL HW BRANCH,HOT WATER LOOP HOT WATER LOOP,Plant Demand,THERMAL ZONE: ZONE14 REHEAT COIL HW INLET,THERMAL ZONE: ZONE14 REHEAT COIL HW OUTLET
   Branch,16,THERMAL ZONE: ZONE15 REHEAT COIL HW BRANCH,HOT WATER LOOP HOT WATER LOOP,Plant Demand,THERMAL ZONE: ZONE15 REHEAT COIL HW INLET,THERMAL ZONE: ZONE15 REHEAT COIL HW OUTLET
   Branch,17,THERMAL ZONE: ZONE16 REHEAT COIL HW BRANCH,HOT WATER LOOP HOT WATER LOOP,Plant Demand,THERMAL ZONE: ZONE16 REHEAT COIL HW INLET,THERMAL ZONE: ZONE16 REHEAT COIL HW OUTLET
   Branch,18,THERMAL ZONE: ZONE17 REHEAT COIL HW BRANCH,HOT WATER LOOP HOT WATER LOOP,Plant Demand,THERMAL ZONE: ZONE17 REHEAT COIL HW INLET,THERMAL ZONE: ZONE17 REHEAT COIL HW OUTLET
   Branch,19,THERMAL ZONE: ZONE18 REHEAT COIL HW BRANCH,HOT WATER LOOP HOT WATER LOOP,Plant Demand,THERMAL ZONE: ZONE18 REHEAT COIL HW INLET,THERMAL ZONE: ZONE18 REHEAT COIL HW OUTLET
   Branch,20,THERMAL ZONE: ZONE19 REHEAT COIL HW BRANCH,HOT WATER LOOP HOT WATER LOOP,Plant Demand,THERMAL ZONE: ZONE19 REHEAT COIL HW INLET,THERMAL ZONE: ZONE19 REHEAT COIL HW OUTLET
   Branch,21,THERMAL ZONE: ZONE20 REHEAT COIL HW BRANCH,HOT WATER LOOP HOT WATER LOOP,Plant Demand,THERMAL ZONE: ZONE20 REHEAT COIL HW INLET,THERMAL ZONE: ZONE20 REHEAT COIL HW OUTLET
   Branch,22,THERMAL ZONE: ZONE21 REHEAT COIL HW BRANCH,HOT WATER LOOP HOT WATER LOOP,Plant Demand,THERMAL ZONE: ZONE21 REHEAT COIL HW INLET,THERMAL ZONE: ZONE21 REHEAT COIL HW OUTLET
   Branch,23,THERMAL ZONE: ZONE22 REHEAT COIL HW BRANCH,HOT WATER LOOP HOT WATER LOOP,Plant Demand,THERMAL ZONE: ZONE22 REHEAT COIL HW INLET,THERMAL ZONE: ZONE22 REHEAT COIL HW OUTLET
   Branch,24,THERMAL ZONE: ZONE23 REHEAT COIL HW BRANCH,HOT WATER LOOP HOT WATER LOOP,Plant Demand,THERMAL ZONE: ZONE23 REHEAT COIL HW INLET,THERMAL ZONE: ZONE23 REHEAT COIL HW OUTLET
   Branch,25,THERMAL ZONE: ZONE24 REHEAT COIL HW BRANCH,HOT WATER LOOP HOT WATER LOOP,Plant Demand,THERMAL ZONE: ZONE24 REHEAT COIL HW INLET,THERMAL ZONE: ZONE24 REHEAT COIL HW OUTLET
   Branch,26,THERMAL ZONE: ZONE25 REHEAT COIL HW BRANCH,HOT WATER LOOP HOT WATER LOOP,Plant Demand,THERMAL ZONE: ZONE25 REHEAT COIL HW INLET,THERMAL ZONE: ZONE25 REHEAT COIL HW OUTLET
   Branch,27,THERMAL ZONE: ZONE26 REHEAT COIL HW BRANCH,HOT WATER LOOP HOT WATER LOOP,Plant Demand,THERMAL ZONE: ZONE26 REHEAT COIL HW INLET,THERMAL ZONE: ZONE26 REHEAT COIL HW OUTLET
   Branch,28,THERMAL ZONE: ZONE27 REHEAT COIL HW BRANCH,HOT WATER LOOP HOT WATER LOOP,Plant Demand,THERMAL ZONE: ZONE27 REHEAT COIL HW INLET,THERMAL ZONE: ZONE27 REHEAT COIL HW OUTLET
   Branch,29,VAV SYS 1 HEATING COIL HW BRANCH,HOT WATER LOOP HOT WATER LOOP,Plant Demand,VAV SYS 1 HEATING COIL HW INLET,VAV SYS 1 HEATING COIL HW OUTLET
   Branch,30,HOT WATER LOOP HW DEMAND BYPASS BRANCH,HOT WATER LOOP HOT WATER LOOP,Plant Demand,HOT WATER LOOP HW DEMAND BYPASS INLET,HOT WATER LOOP HW DEMAND BYPASS OUTLET
   Branch,31,HOT WATER LOOP HW DEMAND OUTLET BRANCH,HOT WATER LOOP HOT WATER LOOP,Plant Demand,HOT WATER LOOP HW DEMAND OUTLET PIPE INLET,HOT WATER LOOP HW DEMAND OUTLET
 Branch List,4,CHILLED WATER LOOP CHW SUPPLY SIDE BRANCHES,CHILLED WATER LOOP CHILLED WATER LOOP,Plant Supply,4
   Branch,1,CHILLED WATER LOOP CHW SUPPLY INLET BRANCH,CHILLED WATER LOOP CHILLED WATER LOOP,Plant Supply,CHILLED WATER LOOP CHW SUPPLY INLET,CHILLED WATER LOOP CHW PUMP OUTLET
   Branch,2,MAIN CHILLER CHW BRANCH,CHILLED WATER LOOP CHILLED WATER LOOP,Plant Supply,MAIN CHILLER CHW INLET,MAIN CHILLER CHW OUTLET
   Branch,3,CHILLED WATER LOOP CHW SUPPLY BYPASS BRANCH,CHILLED WATER LOOP CHILLED WATER LOOP,Plant Supply,CHILLED WATER LOOP CHW SUPPLY BYPASS INLET,CHILLED WATER LOOP CHW SUPPLY BYPASS OUTLET
   Branch,4,CHILLED WATER LOOP CHW SUPPLY OUTLET BRANCH,CHILLED WATER LOOP CHILLED WATER LOOP,Plant Supply,CHILLED WATER LOOP CHW SUPPLY OUTLET PIPE INLET,CHILLED WATER LOOP CHW SUPPLY OUTLET
 Branch List,5,CHILLED WATER LOOP CHW DEMAND SIDE BRANCHES,CHILLED WATER LOOP CHILLED WATER LOOP,Plant Demand,4
   Branch,1,CHILLED WATER LOOP CHW DEMAND INLET BRANCH,CHILLED WATER LOOP CHILLED WATER LOOP,Plant Demand,CHILLED WATER LOOP CHW DEMAND INLET,CHILLED WATER LOOP CHW DEMAND INLET PIPE OUTLET
   Branch,2,VAV SYS 1 COOLING COIL CHW BRANCH,CHILLED WATER LOOP CHILLED WATER LOOP,Plant Demand,VAV SYS 1 COOLING COIL CHW INLET,VAV SYS 1 COOLING COIL CHW OUTLET
   Branch,3,CHILLED WATER LOOP CHW DEMAND BYPASS BRANCH,CHILLED WATER LOOP CHILLED WATER LOOP,Plant Demand,CHILLED WATER LOOP CHW DEMAND BYPASS INLET,CHILLED WATER LOOP CHW DEMAND BYPASS OUTLET
   Branch,4,CHILLED WATER LOOP CHW DEMAND OUTLET BRANCH,CHILLED WATER LOOP CHILLED WATER LOOP,Plant Demand,CHILLED WATER LOOP CHW DEMAND OUTLET PIPE INLET,CHILLED WATER LOOP CHW DEMAND OUTLET
 Branch List,6,CHILLED WATER LOOP CNDW SUPPLY SIDE BRANCHES,CHILLED WATER LOOP CONDENSER WATER LOOP,Condenser Supply,4
   Branch,1,CHILLED WATER LOOP CNDW SUPPLY INLET BRANCH,CHILLED WATER LOOP CONDENSER WATER LOOP,Condenser Supply,CHILLED WATER LOOP CNDW SUPPLY INLET,CHILLED WATER LOOP CNDW PUMP OUTLET
   Branch,2,MAIN TOWER CNDW BRANCH,CHILLED WATER LOOP CONDENSER WATER LOOP,Condenser Supply,MAIN TOWER CNDW INLET,MAIN TOWER CNDW OUTLET
   Branch,3,CHILLED WATER LOOP CNDW SUPPLY BYPASS BRANCH,CHILLED WATER LOOP CONDENSER WATER LOOP,Condenser Supply,CHILLED WATER LOOP CNDW SUPPLY BYPASS INLET,CHILLED WATER LOOP CNDW SUPPLY BYPASS OUTLET
   Branch,4,CHILLED WATER LOOP CNDW SUPPLY OUTLET BRANCH,CHILLED WATER LOOP CONDENSER WATER LOOP,Condenser Supply,CHILLED WATER LOOP CNDW SUPPLY OUTLET PIPE INLET,CHILLED WATER LOOP CNDW SUPPLY OUTLET
 Branch List,7,CHILLED WATER LOOP CNDW DEMAND SIDE BRANCHES,CHILLED WATER LOOP CONDENSER WATER LOOP,Condenser Demand,4
   Branch,1,CHILLED WATER LOOP CNDW DEMAND INLET BRANCH,CHILLED WATER LOOP CONDENSER WATER LOOP,Condenser Demand,CHILLED WATER LOOP CNDW DEMAND INLET,CHILLED WATER LOOP CNDW DEMAND INLET PIPE OUTLET
   Branch,2,MAIN CHILLER CNDW BRANCH,CHILLED WATER LOOP CONDENSER WATER LOOP,Condenser Demand,MAIN CHILLER CND INLET,MAIN CHILLER CND OUTLET
   Branch,3,CHILLED WATER LOOP CNDW DEMAND BYPASS BRANCH,CHILLED WATER LOOP CONDENSER WATER LOOP,Condenser Demand,CHILLED WATER LOOP CNDW DEMAND BYPASS INLET,CHILLED WATER LOOP CNDW DEMAND BYPASS OUTLET
   Branch,4,CHILLED WATER LOOP CNDW DEMAND OUTLET BRANCH,CHILLED WATER LOOP CONDENSER WATER LOOP,Condenser Demand,CHILLED WATER LOOP CNDW DEMAND OUTLET PIPE INLET,CHILLED WATER LOOP CNDW DEMAND OUTLET
! ===============================================================
! <#Supply Air Paths>,<Number of Supply Air Paths>
 #Supply Air Paths,1
! <Supply Air Path>,<Supply Air Path Count>,<Supply Air Path Name>,<AirLoopHVAC Name>
! <#Components on Supply Air Path>,<Number of Components>
! <Supply Air Path Component>,<Component Count>,<Component Type>,<Component Name>,<AirLoopHVAC Name>
! <#Outlet Nodes on Supply Air Path Component>,<Number of Nodes>
! <Supply Air Path Component Nodes>,<Node Count>,<Component Type>,<Component Name>,<Inlet Node Name>,<Outlet Node Name>,<AirLoopHVAC Name>
 Supply Air Path,1,VAV SYS 1 SUPPLY PATH,VAV SYS 1
   #Components on Supply Air Path,1
   Supply Air Path Component,1,AIRLOOPHVAC:ZONESPLITTER,VAV SYS 1 ZONE SPLITTER,VAV SYS 1
     #Outlet Nodes on Supply Air Path Component,27
     Supply Air Path Component Nodes,1,AIRLOOPHVAC:ZONESPLITTER,VAV SYS 1 ZONE SPLITTER,VAV SYS 1 SUPPLY PATH INLET,THERMAL ZONE: ZONE1 ZONE EQUIP INLET,VAV SYS 1
     Supply Air Path Component Nodes,2,AIRLOOPHVAC:ZONESPLITTER,VAV SYS 1 ZONE SPLITTER,VAV SYS 1 SUPPLY PATH INLET,THERMAL ZONE: ZONE2 ZONE EQUIP INLET,VAV SYS 1
     Supply Air Path Component Nodes,3,AIRLOOPHVAC:ZONESPLITTER,VAV SYS 1 ZONE SPLITTER,VAV SYS 1 SUPPLY PATH INLET,THERMAL ZONE: ZONE3 ZONE EQUIP INLET,VAV SYS 1
     Supply Air Path Component Nodes,4,AIRLOOPHVAC:ZONESPLITTER,VAV SYS 1 ZONE SPLITTER,VAV SYS 1 SUPPLY PATH INLET,THERMAL ZONE: ZONE4 ZONE EQUIP INLET,VAV SYS 1
     Supply Air Path Component Nodes,5,AIRLOOPHVAC:ZONESPLITTER,VAV SYS 1 ZONE SPLITTER,VAV SYS 1 SUPPLY PATH INLET,THERMAL ZONE: ZONE5 ZONE EQUIP INLET,VAV SYS 1
     Supply Air Path Component Nodes,6,AIRLOOPHVAC:ZONESPLITTER,VAV SYS 1 ZONE SPLITTER,VAV SYS 1 SUPPLY PATH INLET,THERMAL ZONE: ZONE6 ZONE EQUIP INLET,VAV SYS 1
     Supply Air Path Component Nodes,7,AIRLOOPHVAC:ZONESPLITTER,VAV SYS 1 ZONE SPLITTER,VAV SYS 1 SUPPLY PATH INLET,THERMAL ZONE: ZONE7 ZONE EQUIP INLET,VAV SYS 1
     Supply Air Path Component Nodes,8,AIRLOOPHVAC:ZONESPLITTER,VAV SYS 1 ZONE SPLITTER,VAV SYS 1 SUPPLY PATH INLET,THERMAL ZONE: ZONE8 ZONE EQUIP INLET,VAV SYS 1
     Supply Air Path Component Nodes,9,AIRLOOPHVAC:ZONESPLITTER,VAV SYS 1 ZONE SPLITTER,VAV SYS 1 SUPPLY PATH INLET,THERMAL ZONE: ZONE9 ZONE EQUIP INLET,VAV SYS 1
     Supply Air Path Component Nodes,10,AIRLOOPHVAC:ZONESPLITTER,VAV SYS 1 ZONE SPLITTER,VAV SYS 1 SUPPLY PATH INLET,THERMAL ZONE: ZONE10 ZONE EQUIP INLET,VAV SYS 1
     Supply Air Path Component Nodes,11,AIRLOOPHVAC:ZONESPLITTER,VAV SYS 1 ZONE SPLITTER,VAV SYS 1 SUPPLY PATH INLET,THERMAL ZONE: ZONE11 ZONE EQUIP INLET,VAV SYS 1
     Supply Air Path Component Nodes,12,AIRLOOPHVAC:ZONESPLITTER,VAV SYS 1 ZONE SPLITTER,VAV SYS 1 SUPPLY PATH INLET,THERMAL ZONE: ZONE12 ZONE EQUIP INLET,VAV SYS 1
     Supply Air Path Component Nodes,13,AIRLOOPHVAC:ZONESPLITTER,VAV SYS 1 ZONE SPLITTER,VAV SYS 1 SUPPLY PATH INLET,THERMAL ZONE: ZONE13 ZONE EQUIP INLET,VAV SYS 1
     Supply Air Path Component Nodes,14,AIRLOOPHVAC:ZONESPLITTER,VAV SYS 1 ZONE SPLITTER,VAV SYS 1 SUPPLY PATH INLET,THERMAL ZONE: ZONE14 ZONE EQUIP INLET,VAV SYS 1
     Supply Air Path Component Nodes,15,AIRLOOPHVAC:ZONESPLITTER,VAV SYS 1 ZONE SPLITTER,VAV SYS 1 SUPPLY PATH INLET,THERMAL ZONE: ZONE15 ZONE EQUIP INLET,VAV SYS 1
     Supply Air Path Component Nodes,16,AIRLOOPHVAC:ZONESPLITTER,VAV SYS 1 ZONE SPLITTER,VAV SYS 1 SUPPLY PATH INLET,THERMAL ZONE: ZONE16 ZONE EQUIP INLET,VAV SYS 1
     Supply Air Path Component Nodes,17,AIRLOOPHVAC:ZONESPLITTER,VAV SYS 1 ZONE SPLITTER,VAV SYS 1 SUPPLY PATH INLET,THERMAL ZONE: ZONE17 ZONE EQUIP INLET,VAV SYS 1
     Supply Air Path Component Nodes,18,AIRLOOPHVAC:ZONESPLITTER,VAV SYS 1 ZONE SPLITTER,VAV SYS 1 SUPPLY PATH INLET,THERMAL ZONE: ZONE18 ZONE EQUIP INLET,VAV SYS 1
     Supply Air Path Component Nodes,19,AIRLOOPHVAC:ZONESPLITTER,VAV SYS 1 ZONE SPLITTER,VAV SYS 1 SUPPLY PATH INLET,THERMAL ZONE: ZONE19 ZONE EQUIP INLET,VAV SYS 1
     Supply Air Path Component Nodes,20,AIRLOOPHVAC:ZONESPLITTER,VAV SYS 1 ZONE SPLITTER,VAV SYS 1 SUPPLY PATH INLET,THERMAL ZONE: ZONE20 ZONE EQUIP INLET,VAV SYS 1
     Supply Air Path Component Nodes,21,AIRLOOPHVAC:ZONESPLITTER,VAV SYS 1 ZONE SPLITTER,VAV SYS 1 SUPPLY PATH INLET,THERMAL ZONE: ZONE21 ZONE EQUIP INLET,VAV SYS 1
     Supply Air Path Component Nodes,22,AIRLOOPHVAC:ZONESPLITTER,VAV SYS 1 ZONE SPLITTER,VAV SYS 1 SUPPLY PATH INLET,THERMAL ZONE: ZONE22 ZONE EQUIP INLET,VAV SYS 1
     Supply Air Path Component Nodes,23,AIRLOOPHVAC:ZONESPLITTER,VAV SYS 1 ZONE SPLITTER,VAV SYS 1 SUPPLY PATH INLET,THERMAL ZONE: ZONE23 ZONE EQUIP INLET,VAV SYS 1
     Supply Air Path Component Nodes,24,AIRLOOPHVAC:ZONESPLITTER,VAV SYS 1 ZONE SPLITTER,VAV SYS 1 SUPPLY PATH INLET,THERMAL ZONE: ZONE24 ZONE EQUIP INLET,VAV SYS 1
     Supply Air Path Component Nodes,25,AIRLOOPHVAC:ZONESPLITTER,VAV SYS 1 ZONE SPLITTER,VAV SYS 1 SUPPLY PATH INLET,THERMAL ZONE: ZONE25 ZONE EQUIP INLET,VAV SYS 1
     Supply Air Path Component Nodes,26,AIRLOOPHVAC:ZONESPLITTER,VAV SYS 1 ZONE SPLITTER,VAV SYS 1 SUPPLY PATH INLET,THERMAL ZONE: ZONE26 ZONE EQUIP INLET,VAV SYS 1
     Supply Air Path Component Nodes,27,AIRLOOPHVAC:ZONESPLITTER,VAV SYS 1 ZONE SPLITTER,VAV SYS 1 SUPPLY PATH INLET,THERMAL ZONE: ZONE27 ZONE EQUIP INLET,VAV SYS 1
! <#Nodes on Supply Air Path>,<Number of Nodes>
! <Supply Air Path Node>,<Node Type>,<Node Count>,<Node Name>,<AirLoopHVAC Name>
#Nodes on Supply Air Path,28
   Supply Air Path Node,Inlet Node,1,VAV SYS 1 SUPPLY PATH INLET,VAV SYS 1
   Supply Air Path Node,Outlet Node,2,THERMAL ZONE: ZONE1 ZONE EQUIP INLET,VAV SYS 1
   Supply Air Path Node,Outlet Node,3,THERMAL ZONE: ZONE2 ZONE EQUIP INLET,VAV SYS 1
   Supply Air Path Node,Outlet Node,4,THERMAL ZONE: ZONE3 ZONE EQUIP INLET,VAV SYS 1
   Supply Air Path Node,Outlet Node,5,THERMAL ZONE: ZONE4 ZONE EQUIP INLET,VAV SYS 1
   Supply Air Path Node,Outlet Node,6,THERMAL ZONE: ZONE5 ZONE EQUIP INLET,VAV SYS 1
   Supply Air Path Node,Outlet Node,7,THERMAL ZONE: ZONE6 ZONE EQUIP INLET,VAV SYS 1
   Supply Air Path Node,Outlet Node,8,THERMAL ZONE: ZONE7 ZONE EQUIP INLET,VAV SYS 1
   Supply Air Path Node,Outlet Node,9,THERMAL ZONE: ZONE8 ZONE EQUIP INLET,VAV SYS 1
   Supply Air Path Node,Outlet Node,10,THERMAL ZONE: ZONE9 ZONE EQUIP INLET,VAV SYS 1
   Supply Air Path Node,Outlet Node,11,THERMAL ZONE: ZONE10 ZONE EQUIP INLET,VAV SYS 1
   Supply Air Path Node,Outlet Node,12,THERMAL ZONE: ZONE11 ZONE EQUIP INLET,VAV SYS 1
   Supply Air Path Node,Outlet Node,13,THERMAL ZONE: ZONE12 ZONE EQUIP INLET,VAV SYS 1
   Supply Air Path Node,Outlet Node,14,THERMAL ZONE: ZONE13 ZONE EQUIP INLET,VAV SYS 1
   Supply Air Path Node,Outlet Node,15,THERMAL ZONE: ZONE14 ZONE EQUIP INLET,VAV SYS 1
   Supply Air Path Node,Outlet Node,16,THERMAL ZONE: ZONE15 ZONE EQUIP INLET,VAV SYS 1
   Supply Air Path Node,Outlet Node,17,THERMAL ZONE: ZONE16 ZONE EQUIP INLET,VAV SYS 1
   Supply Air Path Node,Outlet Node,18,THERMAL ZONE: ZONE17 ZONE EQUIP INLET,VAV SYS 1
   Supply Air Path Node,Outlet Node,19,THERMAL ZONE: ZONE18 ZONE EQUIP INLET,VAV SYS 1
   Supply Air Path Node,Outlet Node,20,THERMAL ZONE: ZONE19 ZONE EQUIP INLET,VAV SYS 1
   Supply Air Path Node,Outlet Node,21,THERMAL ZONE: ZONE20 ZONE EQUIP INLET,VAV SYS 1
   Supply Air Path Node,Outlet Node,22,THERMAL ZONE: ZONE21 ZONE EQUIP INLET,VAV SYS 1
   Supply Air Path Node,Outlet Node,23,THERMAL ZONE: ZONE22 ZONE EQUIP INLET,VAV SYS 1
   Supply Air Path Node,Outlet Node,24,THERMAL ZONE: ZONE23 ZONE EQUIP INLET,VAV SYS 1
   Supply Air Path Node,Outlet Node,25,THERMAL ZONE: ZONE24 ZONE EQUIP INLET,VAV SYS 1
   Supply Air Path Node,Outlet Node,26,THERMAL ZONE: ZONE25 ZONE EQUIP INLET,VAV SYS 1
   Supply Air Path Node,Outlet Node,27,THERMAL ZONE: ZONE26 ZONE EQUIP INLET,VAV SYS 1
   Supply Air Path Node,Outlet Node,28,THERMAL ZONE: ZONE27 ZONE EQUIP INLET,VAV SYS 1
! ===============================================================
! <#Return Air Paths>,<Number of Return Air Paths>
 #Return Air Paths,1
! <Return Air Path>,<Return Air Path Count>,<Return Air Path Name>,<AirLoopHVAC Name>
! <#Components on Return Air Path>,<Number of Components>
! <Return Air Path Component>,<Component Count>,<Component Type>,<Component Name>,<AirLoopHVAC Name>
! <#Inlet Nodes on Return Air Path Component>,<Number of Nodes>
! <Return Air Path Component Nodes>,<Node Count>,<Component Type>,<Component Name>,<Inlet Node Name>,<Outlet Node Name>,<AirLoopHVAC Name>
 Return Air Path,1,VAV SYS 1 RETURN PATH,VAV SYS 1
   #Components on Return Air Path,1
   Return Air Path Component,1,AIRLOOPHVAC:RETURNPLENUM,VAV SYS 1 RETURN PLENUM,VAV SYS 1
     #Inlet Nodes on Return Air Path Component,27
     Return Air Path Component Nodes,1,AIRLOOPHVAC:RETURNPLENUM,VAV SYS 1 RETURN PLENUM,THERMAL ZONE: ZONE1 RETURN OUTLET,VAV SYS 1 RETURN AIR OUTLET,VAV SYS 1
     Return Air Path Component Nodes,2,AIRLOOPHVAC:RETURNPLENUM,VAV SYS 1 RETURN PLENUM,THERMAL ZONE: ZONE2 RETURN OUTLET,VAV SYS 1 RETURN AIR OUTLET,VAV SYS 1
     Return Air Path Component Nodes,3,AIRLOOPHVAC:RETURNPLENUM,VAV SYS 1 RETURN PLENUM,THERMAL ZONE: ZONE3 RETURN OUTLET,VAV SYS 1 RETURN AIR OUTLET,VAV SYS 1
     Return Air Path Component Nodes,4,AIRLOOPHVAC:RETURNPLENUM,VAV SYS 1 RETURN PLENUM,THERMAL ZONE: ZONE4 RETURN OUTLET,VAV SYS 1 RETURN AIR OUTLET,VAV SYS 1
     Return Air Path Component Nodes,5,AIRLOOPHVAC:RETURNPLENUM,VAV SYS 1 RETURN PLENUM,THERMAL ZONE: ZONE5 RETURN OUTLET,VAV SYS 1 RETURN AIR OUTLET,VAV SYS 1
     Return Air Path Component Nodes,6,AIRLOOPHVAC:RETURNPLENUM,VAV SYS 1 RETURN PLENUM,THERMAL ZONE: ZONE6 RETURN OUTLET,VAV SYS 1 RETURN AIR OUTLET,VAV SYS 1
     Return Air Path Component Nodes,7,AIRLOOPHVAC:RETURNPLENUM,VAV SYS 1 RETURN PLENUM,THERMAL ZONE: ZONE7 RETURN OUTLET,VAV SYS 1 RETURN AIR OUTLET,VAV SYS 1
     Return Air Path Component Nodes,8,AIRLOOPHVAC:RETURNPLENUM,VAV SYS 1 RETURN PLENUM,THERMAL ZONE: ZONE8 RETURN OUTLET,VAV SYS 1 RETURN AIR OUTLET,VAV SYS 1
     Return Air Path Component Nodes,9,AIRLOOPHVAC:RETURNPLENUM,VAV SYS 1 RETURN PLENUM,THERMAL ZONE: ZONE9 RETURN OUTLET,VAV SYS 1 RETURN AIR OUTLET,VAV SYS 1
     Return Air Path Component Nodes,10,AIRLOOPHVAC:RETURNPLENUM,VAV SYS 1 RETURN PLENUM,THERMAL ZONE: ZONE10 RETURN OUTLET,VAV SYS 1 RETURN AIR OUTLET,VAV SYS 1
     Return Air Path Component Nodes,11,AIRLOOPHVAC:RETURNPLENUM,VAV SYS 1 RETURN PLENUM,THERMAL ZONE: ZONE11 RETURN OUTLET,VAV SYS 1 RETURN AIR OUTLET,VAV SYS 1
     Return Air Path Component Nodes,12,AIRLOOPHVAC:RETURNPLENUM,VAV SYS 1 RETURN PLENUM,THERMAL ZONE: ZONE12 RETURN OUTLET,VAV SYS 1 RETURN AIR OUTLET,VAV SYS 1
     Return Air Path Component Nodes,13,AIRLOOPHVAC:RETURNPLENUM,VAV SYS 1 RETURN PLENUM,THERMAL ZONE: ZONE13 RETURN OUTLET,VAV SYS 1 RETURN AIR OUTLET,VAV SYS 1
     Return Air Path Component Nodes,14,AIRLOOPHVAC:RETURNPLENUM,VAV SYS 1 RETURN PLENUM,THERMAL ZONE: ZONE14 RETURN OUTLET,VAV SYS 1 RETURN AIR OUTLET,VAV SYS 1
     Return Air Path Component Nodes,15,AIRLOOPHVAC:RETURNPLENUM,VAV SYS 1 RETURN PLENUM,THERMAL ZONE: ZONE15 RETURN OUTLET,VAV SYS 1 RETURN AIR OUTLET,VAV SYS 1
     Return Air Path Component Nodes,16,AIRLOOPHVAC:RETURNPLENUM,VAV SYS 1 RETURN PLENUM,THERMAL ZONE: ZONE16 RETURN OUTLET,VAV SYS 1 RETURN AIR OUTLET,VAV SYS 1
     Return Air Path Component Nodes,17,AIRLOOPHVAC:RETURNPLENUM,VAV SYS 1 RETURN PLENUM,THERMAL ZONE: ZONE17 RETURN OUTLET,VAV SYS 1 RETURN AIR OUTLET,VAV SYS 1
     Return Air Path Component Nodes,18,AIRLOOPHVAC:RETURNPLENUM,VAV SYS 1 RETURN PLENUM,THERMAL ZONE: ZONE18 RETURN OUTLET,VAV SYS 1 RETURN AIR OUTLET,VAV SYS 1
     Return Air Path Component Nodes,19,AIRLOOPHVAC:RETURNPLENUM,VAV SYS 1 RETURN PLENUM,THERMAL ZONE: ZONE19 RETURN OUTLET,VAV SYS 1 RETURN AIR OUTLET,VAV SYS 1
     Return Air Path Component Nodes,20,AIRLOOPHVAC:RETURNPLENUM,VAV SYS 1 RETURN PLENUM,THERMAL ZONE: ZONE20 RETURN OUTLET,VAV SYS 1 RETURN AIR OUTLET,VAV SYS 1
     Return Air Path Component Nodes,21,AIRLOOPHVAC:RETURNPLENUM,VAV SYS 1 RETURN PLENUM,THERMAL ZONE: ZONE21 RETURN OUTLET,VAV SYS 1 RETURN AIR OUTLET,VAV SYS 1
     Return Air Path Component Nodes,22,AIRLOOPHVAC:RETURNPLENUM,VAV SYS 1 RETURN PLENUM,THERMAL ZONE: ZONE22 RETURN OUTLET,VAV SYS 1 RETURN AIR OUTLET,VAV SYS 1
     Return Air Path Component Nodes,23,AIRLOOPHVAC:RETURNPLENUM,VAV SYS 1 RETURN PLENUM,THERMAL ZONE: ZONE23 RETURN OUTLET,VAV SYS 1 RETURN AIR OUTLET,VAV SYS 1
     Return Air Path Component Nodes,24,AIRLOOPHVAC:RETURNPLENUM,VAV SYS 1 RETURN PLENUM,THERMAL ZONE: ZONE24 RETURN OUTLET,VAV SYS 1 RETURN AIR OUTLET,VAV SYS 1
     Return Air Path Component Nodes,25,AIRLOOPHVAC:RETURNPLENUM,VAV SYS 1 RETURN PLENUM,THERMAL ZONE: ZONE25 RETURN OUTLET,VAV SYS 1 RETURN AIR OUTLET,VAV SYS 1
     Return Air Path Component Nodes,26,AIRLOOPHVAC:RETURNPLENUM,VAV SYS 1 RETURN PLENUM,THERMAL ZONE: ZONE26 RETURN OUTLET,VAV SYS 1 RETURN AIR OUTLET,VAV SYS 1
     Return Air Path Component Nodes,27,AIRLOOPHVAC:RETURNPLENUM,VAV SYS 1 RETURN PLENUM,THERMAL ZONE: ZONE27 RETURN OUTLET,VAV SYS 1 RETURN AIR OUTLET,VAV SYS 1
! <#Nodes on Return Air Path>,<Number of Nodes>
! <Return Air Path Node>,<Node Type>,<Node Count>,<Node Name>,<AirLoopHVAC Name>
   #Nodes on Return Air Path,28
   Return Air Path Node,Outlet Node,1,VAV SYS 1 RETURN AIR OUTLET,VAV SYS 1
   Return Air Path Node,Inlet Node,2,THERMAL ZONE: ZONE1 RETURN OUTLET,VAV SYS 1
   Return Air Path Node,Inlet Node,3,THERMAL ZONE: ZONE2 RETURN OUTLET,VAV SYS 1
   Return Air Path Node,Inlet Node,4,THERMAL ZONE: ZONE3 RETURN OUTLET,VAV SYS 1
   Return Air Path Node,Inlet Node,5,THERMAL ZONE: ZONE4 RETURN OUTLET,VAV SYS 1
   Return Air Path Node,Inlet Node,6,THERMAL ZONE: ZONE5 RETURN OUTLET,VAV SYS 1
   Return Air Path Node,Inlet Node,7,THERMAL ZONE: ZONE6 RETURN OUTLET,VAV SYS 1
   Return Air Path Node,Inlet Node,8,THERMAL ZONE: ZONE7 RETURN OUTLET,VAV SYS 1
   Return Air Path Node,Inlet Node,9,THERMAL ZONE: ZONE8 RETURN OUTLET,VAV SYS 1
   Return Air Path Node,Inlet Node,10,THERMAL ZONE: ZONE9 RETURN OUTLET,VAV SYS 1
   Return Air Path Node,Inlet Node,11,THERMAL ZONE: ZONE10 RETURN OUTLET,VAV SYS 1
   Return Air Path Node,Inlet Node,12,THERMAL ZONE: ZONE11 RETURN OUTLET,VAV SYS 1
   Return Air Path Node,Inlet Node,13,THERMAL ZONE: ZONE12 RETURN OUTLET,VAV SYS 1
   Return Air Path Node,Inlet Node,14,THERMAL ZONE: ZONE13 RETURN OUTLET,VAV SYS 1
   Return Air Path Node,Inlet Node,15,THERMAL ZONE: ZONE14 RETURN OUTLET,VAV SYS 1
   Return Air Path Node,Inlet Node,16,THERMAL ZONE: ZONE15 RETURN OUTLET,VAV SYS 1
   Return Air Path Node,Inlet Node,17,THERMAL ZONE: ZONE16 RETURN OUTLET,VAV SYS 1
   Return Air Path Node,Inlet Node,18,THERMAL ZONE: ZONE17 RETURN OUTLET,VAV SYS 1
   Return Air Path Node,Inlet Node,19,THERMAL ZONE: ZONE18 RETURN OUTLET,VAV SYS 1
   Return Air Path Node,Inlet Node,20,THERMAL ZONE: ZONE19 RETURN OUTLET,VAV SYS 1
   Return Air Path Node,Inlet Node,21,THERMAL ZONE: ZONE20 RETURN OUTLET,VAV SYS 1
   Return Air Path Node,Inlet Node,22,THERMAL ZONE: ZONE21 RETURN OUTLET,VAV SYS 1
   Return Air Path Node,Inlet Node,23,THERMAL ZONE: ZONE22 RETURN OUTLET,VAV SYS 1
   Return Air Path Node,Inlet Node,24,THERMAL ZONE: ZONE23 RETURN OUTLET,VAV SYS 1
   Return Air Path Node,Inlet Node,25,THERMAL ZONE: ZONE24 RETURN OUTLET,VAV SYS 1
   Return Air Path Node,Inlet Node,26,THERMAL ZONE: ZONE25 RETURN OUTLET,VAV SYS 1
   Return Air Path Node,Inlet Node,27,THERMAL ZONE: ZONE26 RETURN OUTLET,VAV SYS 1
   Return Air Path Node,Inlet Node,28,THERMAL ZONE: ZONE27 RETURN OUTLET,VAV SYS 1
! ===============================================================
! #Outdoor Air Nodes,<Number of Outdoor Air Nodes>
 #Outdoor Air Nodes,3
! <Outdoor Air Node>,<NodeNumber>,<Node Name>
 Outdoor Air Node,192,VAV SYS 1 OUTSIDE AIR INLET
 Outdoor Air Node,193,MAIN TOWER COOLING TOWER OUTDOOR AIR INLET NODE
 Outdoor Air Node,194,CHILLED WATER LOOP OUTSIDE AIR SENSOR
! ===============================================================
! <#Component Sets>,<Number of Component Sets>
 #Component Sets,111
! <Component Set>,<Component Set Count>,<Parent Object Type>,<Parent Object Name>,<Component Type>,<Component Name>,<Inlet Node ID>,<Outlet Node ID>,<Description>
 Component Set,1,BRANCH,THERMAL ZONE: ZONE1 REHEAT COIL HW BRANCH,COIL:HEATING:WATER,THERMAL ZONE: ZONE1 REHEAT COIL,THERMAL ZONE: ZONE1 REHEAT COIL HW INLET,THERMAL ZONE: ZONE1 REHEAT COIL HW OUTLET,Water Nodes
 Component Set,2,BRANCH,THERMAL ZONE: ZONE2 REHEAT COIL HW BRANCH,COIL:HEATING:WATER,THERMAL ZONE: ZONE2 REHEAT COIL,THERMAL ZONE: ZONE2 REHEAT COIL HW INLET,THERMAL ZONE: ZONE2 REHEAT COIL HW OUTLET,Water Nodes
 Component Set,3,BRANCH,THERMAL ZONE: ZONE3 REHEAT COIL HW BRANCH,COIL:HEATING:WATER,THERMAL ZONE: ZONE3 REHEAT COIL,THERMAL ZONE: ZONE3 REHEAT COIL HW INLET,THERMAL ZONE: ZONE3 REHEAT COIL HW OUTLET,Water Nodes
 Component Set,4,BRANCH,THERMAL ZONE: ZONE4 REHEAT COIL HW BRANCH,COIL:HEATING:WATER,THERMAL ZONE: ZONE4 REHEAT COIL,THERMAL ZONE: ZONE4 REHEAT COIL HW INLET,THERMAL ZONE: ZONE4 REHEAT COIL HW OUTLET,Water Nodes
 Component Set,5,BRANCH,THERMAL ZONE: ZONE5 REHEAT COIL HW BRANCH,COIL:HEATING:WATER,THERMAL ZONE: ZONE5 REHEAT COIL,THERMAL ZONE: ZONE5 REHEAT COIL HW INLET,THERMAL ZONE: ZONE5 REHEAT COIL HW OUTLET,Water Nodes
 Component Set,6,BRANCH,THERMAL ZONE: ZONE6 REHEAT COIL HW BRANCH,COIL:HEATING:WATER,THERMAL ZONE: ZONE6 REHEAT COIL,THERMAL ZONE: ZONE6 REHEAT COIL HW INLET,THERMAL ZONE: ZONE6 REHEAT COIL HW OUTLET,Water Nodes
 Component Set,7,BRANCH,THERMAL ZONE: ZONE7 REHEAT COIL HW BRANCH,COIL:HEATING:WATER,THERMAL ZONE: ZONE7 REHEAT COIL,THERMAL ZONE: ZONE7 REHEAT COIL HW INLET,THERMAL ZONE: ZONE7 REHEAT COIL HW OUTLET,Water Nodes
 Component Set,8,BRANCH,THERMAL ZONE: ZONE8 REHEAT COIL HW BRANCH,COIL:HEATING:WATER,THERMAL ZONE: ZONE8 REHEAT COIL,THERMAL ZONE: ZONE8 REHEAT COIL HW INLET,THERMAL ZONE: ZONE8 REHEAT COIL HW OUTLET,Water Nodes
 Component Set,9,BRANCH,THERMAL ZONE: ZONE9 REHEAT COIL HW BRANCH,COIL:HEATING:WATER,THERMAL ZONE: ZONE9 REHEAT COIL,THERMAL ZONE: ZONE9 REHEAT COIL HW INLET,THERMAL ZONE: ZONE9 REHEAT COIL HW OUTLET,Water Nodes
 Component Set,10,BRANCH,THERMAL ZONE: ZONE10 REHEAT COIL HW BRANCH,COIL:HEATING:WATER,THERMAL ZONE: ZONE10 REHEAT COIL,THERMAL ZONE: ZONE10 REHEAT COIL HW INLET,THERMAL ZONE: ZONE10 REHEAT COIL HW OUTLET,Water Nodes
 Component Set,11,BRANCH,THERMAL ZONE: ZONE11 REHEAT COIL HW BRANCH,COIL:HEATING:WATER,THERMAL ZONE: ZONE11 REHEAT COIL,THERMAL ZONE: ZONE11 REHEAT COIL HW INLET,THERMAL ZONE: ZONE11 REHEAT COIL HW OUTLET,Water Nodes
 Component Set,12,BRANCH,THERMAL ZONE: ZONE12 REHEAT COIL HW BRANCH,COIL:HEATING:WATER,THERMAL ZONE: ZONE12 REHEAT COIL,THERMAL ZONE: ZONE12 REHEAT COIL HW INLET,THERMAL ZONE: ZONE12 REHEAT COIL HW OUTLET,Water Nodes
 Component Set,13,BRANCH,THERMAL ZONE: ZONE13 REHEAT COIL HW BRANCH,COIL:HEATING:WATER,THERMAL ZONE: ZONE13 REHEAT COIL,THERMAL ZONE: ZONE13 REHEAT COIL HW INLET,THERMAL ZONE: ZONE13 REHEAT COIL HW OUTLET,Water Nodes
 Component Set,14,BRANCH,THERMAL ZONE: ZONE14 REHEAT COIL HW BRANCH,COIL:HEATING:WATER,THERMAL ZONE: ZONE14 REHEAT COIL,THERMAL ZONE: ZONE14 REHEAT COIL HW INLET,THERMAL ZONE: ZONE14 REHEAT COIL HW OUTLET,Water Nodes
 Component Set,15,BRANCH,THERMAL ZONE: ZONE15 REHEAT COIL HW BRANCH,COIL:HEATING:WATER,THERMAL ZONE: ZONE15 REHEAT COIL,THERMAL ZONE: ZONE15 REHEAT COIL HW INLET,THERMAL ZONE: ZONE15 REHEAT COIL HW OUTLET,Water Nodes
 Component Set,16,BRANCH,THERMAL ZONE: ZONE16 REHEAT COIL HW BRANCH,COIL:HEATING:WATER,THERMAL ZONE: ZONE16 REHEAT COIL,THERMAL ZONE: ZONE16 REHEAT COIL HW INLET,THERMAL ZONE: ZONE16 REHEAT COIL HW OUTLET,Water Nodes
 Component Set,17,BRANCH,THERMAL ZONE: ZONE17 REHEAT COIL HW BRANCH,COIL:HEATING:WATER,THERMAL ZONE: ZONE17 REHEAT COIL,THERMAL ZONE: ZONE17 REHEAT COIL HW INLET,THERMAL ZONE: ZONE17 REHEAT COIL HW OUTLET,Water Nodes
 Component Set,18,BRANCH,THERMAL ZONE: ZONE18 REHEAT COIL HW BRANCH,COIL:HEATING:WATER,THERMAL ZONE: ZONE18 REHEAT COIL,THERMAL ZONE: ZONE18 REHEAT COIL HW INLET,THERMAL ZONE: ZONE18 REHEAT COIL HW OUTLET,Water Nodes
 Component Set,19,BRANCH,THERMAL ZONE: ZONE19 REHEAT COIL HW BRANCH,COIL:HEATING:WATER,THERMAL ZONE: ZONE19 REHEAT COIL,THERMAL ZONE: ZONE19 REHEAT COIL HW INLET,THERMAL ZONE: ZONE19 REHEAT COIL HW OUTLET,Water Nodes
 Component Set,20,BRANCH,THERMAL ZONE: ZONE20 REHEAT COIL HW BRANCH,COIL:HEATING:WATER,THERMAL ZONE: ZONE20 REHEAT COIL,THERMAL ZONE: ZONE20 REHEAT COIL HW INLET,THERMAL ZONE: ZONE20 REHEAT COIL HW OUTLET,Water Nodes
 Component Set,21,BRANCH,THERMAL ZONE: ZONE21 REHEAT COIL HW BRANCH,COIL:HEATING:WATER,THERMAL ZONE: ZONE21 REHEAT COIL,THERMAL ZONE: ZONE21 REHEAT COIL HW INLET,THERMAL ZONE: ZONE21 REHEAT COIL HW OUTLET,Water Nodes
 Component Set,22,BRANCH,THERMAL ZONE: ZONE22 REHEAT COIL HW BRANCH,COIL:HEATING:WATER,THERMAL ZONE: ZONE22 REHEAT COIL,THERMAL ZONE: ZONE22 REHEAT COIL HW INLET,THERMAL ZONE: ZONE22 REHEAT COIL HW OUTLET,Water Nodes
 Component Set,23,BRANCH,THERMAL ZONE: ZONE23 REHEAT COIL HW BRANCH,COIL:HEATING:WATER,THERMAL ZONE: ZONE23 REHEAT COIL,THERMAL ZONE: ZONE23 REHEAT COIL HW INLET,THERMAL ZONE: ZONE23 REHEAT COIL HW OUTLET,Water Nodes
 Component Set,24,BRANCH,THERMAL ZONE: ZONE24 REHEAT COIL HW BRANCH,COIL:HEATING:WATER,THERMAL ZONE: ZONE24 REHEAT COIL,THERMAL ZONE: ZONE24 REHEAT COIL HW INLET,THERMAL ZONE: ZONE24 REHEAT COIL HW OUTLET,Water Nodes
 Component Set,25,BRANCH,THERMAL ZONE: ZONE25 REHEAT COIL HW BRANCH,COIL:HEATING:WATER,THERMAL ZONE: ZONE25 REHEAT COIL,THERMAL ZONE: ZONE25 REHEAT COIL HW INLET,THERMAL ZONE: ZONE25 REHEAT COIL HW OUTLET,Water Nodes
 Component Set,26,BRANCH,THERMAL ZONE: ZONE26 REHEAT COIL HW BRANCH,COIL:HEATING:WATER,THERMAL ZONE: ZONE26 REHEAT COIL,THERMAL ZONE: ZONE26 REHEAT COIL HW INLET,THERMAL ZONE: ZONE26 REHEAT COIL HW OUTLET,Water Nodes
 Component Set,27,BRANCH,THERMAL ZONE: ZONE27 REHEAT COIL HW BRANCH,COIL:HEATING:WATER,THERMAL ZONE: ZONE27 REHEAT COIL,THERMAL ZONE: ZONE27 REHEAT COIL HW INLET,THERMAL ZONE: ZONE27 REHEAT COIL HW OUTLET,Water Nodes
 Component Set,28,BRANCH,VAV SYS 1 MAIN BRANCH,FAN:VARIABLEVOLUME,VAV SYS 1 RETURN FAN,VAV SYS 1 AIR LOOP INLET,VAV SYS 1 RETURN FAN OUTLET,Air Nodes
 Component Set,29,BRANCH,VAV SYS 1 MAIN BRANCH,AIRLOOPHVAC:OUTDOORAIRSYSTEM,VAV SYS 1 OA SYSTEM,VAV SYS 1 RETURN FAN OUTLET,VAV SYS 1 MIXED AIR OUTLET,Air Nodes
 Component Set,30,BRANCH,VAV SYS 1 MAIN BRANCH,COIL:COOLING:WATER,VAV SYS 1 COOLING COIL,VAV SYS 1 MIXED AIR OUTLET,VAV SYS 1 COOLING COIL OUTLET,Air Nodes
 Component Set,31,BRANCH,VAV SYS 1 MAIN BRANCH,COIL:HEATING:WATER,VAV SYS 1 HEATING COIL,VAV SYS 1 COOLING COIL OUTLET,VAV SYS 1 HEATING COIL OUTLET,Air Nodes
 Component Set,32,BRANCH,VAV SYS 1 MAIN BRANCH,FAN:VARIABLEVOLUME,VAV SYS 1 SUPPLY FAN,VAV SYS 1 HEATING COIL OUTLET,VAV SYS 1 SUPPLY FAN OUTLET,Air Nodes
 Component Set,33,BRANCH,VAV SYS 1 COOLING COIL CHW BRANCH,COIL:COOLING:WATER,VAV SYS 1 COOLING COIL,VAV SYS 1 COOLING COIL CHW INLET,VAV SYS 1 COOLING COIL CHW OUTLET,Water Nodes
 Component Set,34,BRANCH,VAV SYS 1 HEATING COIL HW BRANCH,COIL:HEATING:WATER,VAV SYS 1 HEATING COIL,VAV SYS 1 HEATING COIL HW INLET,VAV SYS 1 HEATING COIL HW OUTLET,Water Nodes
 Component Set,35,BRANCH,MAIN BOILER HW BRANCH,BOILER:HOTWATER,MAIN BOILER,MAIN BOILER HW INLET,MAIN BOILER HW OUTLET,Hot Water Nodes
 Component Set,36,BRANCH,MAIN CHILLER CHW BRANCH,CHILLER:ELECTRIC:EIR,MAIN CHILLER,MAIN CHILLER CHW INLET,MAIN CHILLER CHW OUTLET,Chilled Water Nodes
 Component Set,37,BRANCH,MAIN CHILLER CNDW BRANCH,CHILLER:ELECTRIC:EIR,MAIN CHILLER,MAIN CHILLER CND INLET,MAIN CHILLER CND OUTLET,Condenser Water Nodes
 Component Set,38,BRANCH,MAIN TOWER CNDW BRANCH,COOLINGTOWER:SINGLESPEED,MAIN TOWER,MAIN TOWER CNDW INLET,MAIN TOWER CNDW OUTLET,Chilled Water Nodes
 Component Set,39,BRANCH,HOT WATER LOOP HW SUPPLY BYPASS BRANCH,PIPE:ADIABATIC,HOT WATER LOOP HW SUPPLY SIDE BYPASS PIPE,HOT WATER LOOP HW SUPPLY BYPASS INLET,HOT WATER LOOP HW SUPPLY BYPASS OUTLET,Pipe Nodes
 Component Set,40,BRANCH,HOT WATER LOOP HW SUPPLY INLET BRANCH,PUMP:CONSTANTSPEED,HOT WATER LOOP HW SUPPLY PUMP,HOT WATER LOOP HW SUPPLY INLET,HOT WATER LOOP HW PUMP OUTLET,Water Nodes
 Component Set,41,BRANCH,HOT WATER LOOP HW SUPPLY OUTLET BRANCH,PIPE:ADIABATIC,HOT WATER LOOP HW SUPPLY OUTLET PIPE,HOT WATER LOOP HW SUPPLY OUTLET PIPE INLET,HOT WATER LOOP HW SUPPLY OUTLET,Pipe Nodes
 Component Set,42,BRANCH,HOT WATER LOOP HW DEMAND INLET BRANCH,PIPE:ADIABATIC,HOT WATER LOOP HW DEMAND INLET PIPE,HOT WATER LOOP HW DEMAND INLET,HOT WATER LOOP HW DEMAND INLET PIPE OUTLET,Pipe Nodes
 Component Set,43,BRANCH,HOT WATER LOOP HW DEMAND BYPASS BRANCH,PIPE:ADIABATIC,HOT WATER LOOP HW DEMAND SIDE BYPASS PIPE,HOT WATER LOOP HW DEMAND BYPASS INLET,HOT WATER LOOP HW DEMAND BYPASS OUTLET,Pipe Nodes
 Component Set,44,BRANCH,HOT WATER LOOP HW DEMAND OUTLET BRANCH,PIPE:ADIABATIC,HOT WATER LOOP HW DEMAND OUTLET PIPE,HOT WATER LOOP HW DEMAND OUTLET PIPE INLET,HOT WATER LOOP HW DEMAND OUTLET,Pipe Nodes
 Component Set,45,BRANCH,CHILLED WATER LOOP CHW SUPPLY BYPASS BRANCH,PIPE:ADIABATIC,CHILLED WATER LOOP CHW SUPPLY SIDE BYPASS PIPE,CHILLED WATER LOOP CHW SUPPLY BYPASS INLET,CHILLED WATER LOOP CHW SUPPLY BYPASS OUTLET,Pipe Nodes
 Component Set,46,BRANCH,CHILLED WATER LOOP CHW SUPPLY INLET BRANCH,PUMP:CONSTANTSPEED,CHILLED WATER LOOP CHW SUPPLY PUMP,CHILLED WATER LOOP CHW SUPPLY INLET,CHILLED WATER LOOP CHW PUMP OUTLET,Water Nodes
 Component Set,47,BRANCH,CHILLED WATER LOOP CHW SUPPLY OUTLET BRANCH,PIPE:ADIABATIC,CHILLED WATER LOOP CHW SUPPLY OUTLET PIPE,CHILLED WATER LOOP CHW SUPPLY OUTLET PIPE INLET,CHILLED WATER LOOP CHW SUPPLY OUTLET,Pipe Nodes
 Component Set,48,BRANCH,CHILLED WATER LOOP CHW DEMAND INLET BRANCH,PIPE:ADIABATIC,CHILLED WATER LOOP CHW DEMAND INLET PIPE,CHILLED WATER LOOP CHW DEMAND INLET,CHILLED WATER LOOP CHW DEMAND INLET PIPE OUTLET,Pipe Nodes
 Component Set,49,BRANCH,CHILLED WATER LOOP CHW DEMAND BYPASS BRANCH,PIPE:ADIABATIC,CHILLED WATER LOOP CHW DEMAND SIDE BYPASS PIPE,CHILLED WATER LOOP CHW DEMAND BYPASS INLET,CHILLED WATER LOOP CHW DEMAND BYPASS OUTLET,Pipe Nodes
 Component Set,50,BRANCH,CHILLED WATER LOOP CHW DEMAND OUTLET BRANCH,PIPE:ADIABATIC,CHILLED WATER LOOP CHW DEMAND OUTLET PIPE,CHILLED WATER LOOP CHW DEMAND OUTLET PIPE INLET,CHILLED WATER LOOP CHW DEMAND OUTLET,Pipe Nodes
 Component Set,51,BRANCH,CHILLED WATER LOOP CNDW SUPPLY INLET BRANCH,PUMP:VARIABLESPEED,CHILLED WATER LOOP CNDW SUPPLY PUMP,CHILLED WATER LOOP CNDW SUPPLY INLET,CHILLED WATER LOOP CNDW PUMP OUTLET,Water Nodes
 Component Set,52,BRANCH,CHILLED WATER LOOP CNDW SUPPLY OUTLET BRANCH,PIPE:ADIABATIC,CHILLED WATER LOOP CNDW SUPPLY OUTLET PIPE,CHILLED WATER LOOP CNDW SUPPLY OUTLET PIPE INLET,CHILLED WATER LOOP CNDW SUPPLY OUTLET,Pipe Nodes
 Component Set,53,BRANCH,CHILLED WATER LOOP CNDW SUPPLY BYPASS BRANCH,PIPE:ADIABATIC,CHILLED WATER LOOP CNDW SUPPLY SIDE BYPASS PIPE,CHILLED WATER LOOP CNDW SUPPLY BYPASS INLET,CHILLED WATER LOOP CNDW SUPPLY BYPASS OUTLET,Pipe Nodes
 Component Set,54,BRANCH,CHILLED WATER LOOP CNDW DEMAND INLET BRANCH,PIPE:ADIABATIC,CHILLED WATER LOOP CNDW DEMAND INLET PIPE,CHILLED WATER LOOP CNDW DEMAND INLET,CHILLED WATER LOOP CNDW DEMAND INLET PIPE OUTLET,Pipe Nodes
 Component Set,55,BRANCH,CHILLED WATER LOOP CNDW DEMAND BYPASS BRANCH,PIPE:ADIABATIC,CHILLED WATER LOOP CNDW DEMAND SIDE BYPASS PIPE,CHILLED WATER LOOP CNDW DEMAND BYPASS INLET,CHILLED WATER LOOP CNDW DEMAND BYPASS OUTLET,Pipe Nodes
 Component Set,56,BRANCH,CHILLED WATER LOOP CNDW DEMAND OUTLET BRANCH,PIPE:ADIABATIC,CHILLED WATER LOOP CNDW DEMAND OUTLET PIPE,CHILLED WATER LOOP CNDW DEMAND OUTLET PIPE INLET,CHILLED WATER LOOP CNDW DEMAND OUTLET,Pipe Nodes
 Component Set,57,ZONEHVAC:AIRDISTRIBUTIONUNIT,THERMAL ZONE: ZONE1 ATU,AIRTERMINAL:SINGLEDUCT:VAV:REHEAT,THERMAL ZONE: ZONE1 VAV REHEAT,THERMAL ZONE: ZONE1 ZONE EQUIP INLET,THERMAL ZONE: ZONE1 SUPPLY INLET,Air Nodes
 Component Set,58,ZONEHVAC:AIRDISTRIBUTIONUNIT,THERMAL ZONE: ZONE2 ATU,AIRTERMINAL:SINGLEDUCT:VAV:REHEAT,THERMAL ZONE: ZONE2 VAV REHEAT,THERMAL ZONE: ZONE2 ZONE EQUIP INLET,THERMAL ZONE: ZONE2 SUPPLY INLET,Air Nodes
 Component Set,59,ZONEHVAC:AIRDISTRIBUTIONUNIT,THERMAL ZONE: ZONE3 ATU,AIRTERMINAL:SINGLEDUCT:VAV:REHEAT,THERMAL ZONE: ZONE3 VAV REHEAT,THERMAL ZONE: ZONE3 ZONE EQUIP INLET,THERMAL ZONE: ZONE3 SUPPLY INLET,Air Nodes
 Component Set,60,ZONEHVAC:AIRDISTRIBUTIONUNIT,THERMAL ZONE: ZONE4 ATU,AIRTERMINAL:SINGLEDUCT:VAV:REHEAT,THERMAL ZONE: ZONE4 VAV REHEAT,THERMAL ZONE: ZONE4 ZONE EQUIP INLET,THERMAL ZONE: ZONE4 SUPPLY INLET,Air Nodes
 Component Set,61,ZONEHVAC:AIRDISTRIBUTIONUNIT,THERMAL ZONE: ZONE5 ATU,AIRTERMINAL:SINGLEDUCT:VAV:REHEAT,THERMAL ZONE: ZONE5 VAV REHEAT,THERMAL ZONE: ZONE5 ZONE EQUIP INLET,THERMAL ZONE: ZONE5 SUPPLY INLET,Air Nodes
 Component Set,62,ZONEHVAC:AIRDISTRIBUTIONUNIT,THERMAL ZONE: ZONE6 ATU,AIRTERMINAL:SINGLEDUCT:VAV:REHEAT,THERMAL ZONE: ZONE6 VAV REHEAT,THERMAL ZONE: ZONE6 ZONE EQUIP INLET,THERMAL ZONE: ZONE6 SUPPLY INLET,Air Nodes
 Component Set,63,ZONEHVAC:AIRDISTRIBUTIONUNIT,THERMAL ZONE: ZONE7 ATU,AIRTERMINAL:SINGLEDUCT:VAV:REHEAT,THERMAL ZONE: ZONE7 VAV REHEAT,THERMAL ZONE: ZONE7 ZONE EQUIP INLET,THERMAL ZONE: ZONE7 SUPPLY INLET,Air Nodes
 Component Set,64,ZONEHVAC:AIRDISTRIBUTIONUNIT,THERMAL ZONE: ZONE8 ATU,AIRTERMINAL:SINGLEDUCT:VAV:REHEAT,THERMAL ZONE: ZONE8 VAV REHEAT,THERMAL ZONE: ZONE8 ZONE EQUIP INLET,THERMAL ZONE: ZONE8 SUPPLY INLET,Air Nodes
 Component Set,65,ZONEHVAC:AIRDISTRIBUTIONUNIT,THERMAL ZONE: ZONE9 ATU,AIRTERMINAL:SINGLEDUCT:VAV:REHEAT,THERMAL ZONE: ZONE9 VAV REHEAT,THERMAL ZONE: ZONE9 ZONE EQUIP INLET,THERMAL ZONE: ZONE9 SUPPLY INLET,Air Nodes
 Component Set,66,ZONEHVAC:AIRDISTRIBUTIONUNIT,THERMAL ZONE: ZONE10 ATU,AIRTERMINAL:SINGLEDUCT:VAV:REHEAT,THERMAL ZONE: ZONE10 VAV REHEAT,THERMAL ZONE: ZONE10 ZONE EQUIP INLET,THERMAL ZONE: ZONE10 SUPPLY INLET,Air Nodes
 Component Set,67,ZONEHVAC:AIRDISTRIBUTIONUNIT,THERMAL ZONE: ZONE11 ATU,AIRTERMINAL:SINGLEDUCT:VAV:REHEAT,THERMAL ZONE: ZONE11 VAV REHEAT,THERMAL ZONE: ZONE11 ZONE EQUIP INLET,THERMAL ZONE: ZONE11 SUPPLY INLET,Air Nodes
 Component Set,68,ZONEHVAC:AIRDISTRIBUTIONUNIT,THERMAL ZONE: ZONE12 ATU,AIRTERMINAL:SINGLEDUCT:VAV:REHEAT,THERMAL ZONE: ZONE12 VAV REHEAT,THERMAL ZONE: ZONE12 ZONE EQUIP INLET,THERMAL ZONE: ZONE12 SUPPLY INLET,Air Nodes
 Component Set,69,ZONEHVAC:AIRDISTRIBUTIONUNIT,THERMAL ZONE: ZONE13 ATU,AIRTERMINAL:SINGLEDUCT:VAV:REHEAT,THERMAL ZONE: ZONE13 VAV REHEAT,THERMAL ZONE: ZONE13 ZONE EQUIP INLET,THERMAL ZONE: ZONE13 SUPPLY INLET,Air Nodes
 Component Set,70,ZONEHVAC:AIRDISTRIBUTIONUNIT,THERMAL ZONE: ZONE14 ATU,AIRTERMINAL:SINGLEDUCT:VAV:REHEAT,THERMAL ZONE: ZONE14 VAV REHEAT,THERMAL ZONE: ZONE14 ZONE EQUIP INLET,THERMAL ZONE: ZONE14 SUPPLY INLET,Air Nodes
 Component Set,71,ZONEHVAC:AIRDISTRIBUTIONUNIT,THERMAL ZONE: ZONE15 ATU,AIRTERMINAL:SINGLEDUCT:VAV:REHEAT,THERMAL ZONE: ZONE15 VAV REHEAT,THERMAL ZONE: ZONE15 ZONE EQUIP INLET,THERMAL ZONE: ZONE15 SUPPLY INLET,Air Nodes
 Component Set,72,ZONEHVAC:AIRDISTRIBUTIONUNIT,THERMAL ZONE: ZONE16 ATU,AIRTERMINAL:SINGLEDUCT:VAV:REHEAT,THERMAL ZONE: ZONE16 VAV REHEAT,THERMAL ZONE: ZONE16 ZONE EQUIP INLET,THERMAL ZONE: ZONE16 SUPPLY INLET,Air Nodes
 Component Set,73,ZONEHVAC:AIRDISTRIBUTIONUNIT,THERMAL ZONE: ZONE17 ATU,AIRTERMINAL:SINGLEDUCT:VAV:REHEAT,THERMAL ZONE: ZONE17 VAV REHEAT,THERMAL ZONE: ZONE17 ZONE EQUIP INLET,THERMAL ZONE: ZONE17 SUPPLY INLET,Air Nodes
 Component Set,74,ZONEHVAC:AIRDISTRIBUTIONUNIT,THERMAL ZONE: ZONE18 ATU,AIRTERMINAL:SINGLEDUCT:VAV:REHEAT,THERMAL ZONE: ZONE18 VAV REHEAT,THERMAL ZONE: ZONE18 ZONE EQUIP INLET,THERMAL ZONE: ZONE18 SUPPLY INLET,Air Nodes
 Component Set,75,ZONEHVAC:AIRDISTRIBUTIONUNIT,THERMAL ZONE: ZONE19 ATU,AIRTERMINAL:SINGLEDUCT:VAV:REHEAT,THERMAL ZONE: ZONE19 VAV REHEAT,THERMAL ZONE: ZONE19 ZONE EQUIP INLET,THERMAL ZONE: ZONE19 SUPPLY INLET,Air Nodes
 Component Set,76,ZONEHVAC:AIRDISTRIBUTIONUNIT,THERMAL ZONE: ZONE20 ATU,AIRTERMINAL:SINGLEDUCT:VAV:REHEAT,THERMAL ZONE: ZONE20 VAV REHEAT,THERMAL ZONE: ZONE20 ZONE EQUIP INLET,THERMAL ZONE: ZONE20 SUPPLY INLET,Air Nodes
 Component Set,77,ZONEHVAC:AIRDISTRIBUTIONUNIT,THERMAL ZONE: ZONE21 ATU,AIRTERMINAL:SINGLEDUCT:VAV:REHEAT,THERMAL ZONE: ZONE21 VAV REHEAT,THERMAL ZONE: ZONE21 ZONE EQUIP INLET,THERMAL ZONE: ZONE21 SUPPLY INLET,Air Nodes
 Component Set,78,ZONEHVAC:AIRDISTRIBUTIONUNIT,THERMAL ZONE: ZONE22 ATU,AIRTERMINAL:SINGLEDUCT:VAV:REHEAT,THERMAL ZONE: ZONE22 VAV REHEAT,THERMAL ZONE: ZONE22 ZONE EQUIP INLET,THERMAL ZONE: ZONE22 SUPPLY INLET,Air Nodes
 Component Set,79,ZONEHVAC:AIRDISTRIBUTIONUNIT,THERMAL ZONE: ZONE23 ATU,AIRTERMINAL:SINGLEDUCT:VAV:REHEAT,THERMAL ZONE: ZONE23 VAV REHEAT,THERMAL ZONE: ZONE23 ZONE EQUIP INLET,THERMAL ZONE: ZONE23 SUPPLY INLET,Air Nodes
 Component Set,80,ZONEHVAC:AIRDISTRIBUTIONUNIT,THERMAL ZONE: ZONE24 ATU,AIRTERMINAL:SINGLEDUCT:VAV:REHEAT,THERMAL ZONE: ZONE24 VAV REHEAT,THERMAL ZONE: ZONE24 ZONE EQUIP INLET,THERMAL ZONE: ZONE24 SUPPLY INLET,Air Nodes
 Component Set,81,ZONEHVAC:AIRDISTRIBUTIONUNIT,THERMAL ZONE: ZONE25 ATU,AIRTERMINAL:SINGLEDUCT:VAV:REHEAT,THERMAL ZONE: ZONE25 VAV REHEAT,THERMAL ZONE: ZONE25 ZONE EQUIP INLET,THERMAL ZONE: ZONE25 SUPPLY INLET,Air Nodes
 Component Set,82,ZONEHVAC:AIRDISTRIBUTIONUNIT,THERMAL ZONE: ZONE26 ATU,AIRTERMINAL:SINGLEDUCT:VAV:REHEAT,THERMAL ZONE: ZONE26 VAV REHEAT,THERMAL ZONE: ZONE26 ZONE EQUIP INLET,THERMAL ZONE: ZONE26 SUPPLY INLET,Air Nodes
 Component Set,83,ZONEHVAC:AIRDISTRIBUTIONUNIT,THERMAL ZONE: ZONE27 ATU,AIRTERMINAL:SINGLEDUCT:VAV:REHEAT,THERMAL ZONE: ZONE27 VAV REHEAT,THERMAL ZONE: ZONE27 ZONE EQUIP INLET,THERMAL ZONE: ZONE27 SUPPLY INLET,Air Nodes
 Component Set,84,AIRTERMINAL:SINGLEDUCT:VAV:REHEAT,THERMAL ZONE: ZONE1 VAV REHEAT,COIL:HEATING:WATER,THERMAL ZONE: ZONE1 REHEAT COIL,THERMAL ZONE: ZONE1 DAMPER OUTLET,THERMAL ZONE: ZONE1 SUPPLY INLET,Air Nodes
 Component Set,85,AIRTERMINAL:SINGLEDUCT:VAV:REHEAT,THERMAL ZONE: ZONE2 VAV REHEAT,COIL:HEATING:WATER,THERMAL ZONE: ZONE2 REHEAT COIL,THERMAL ZONE: ZONE2 DAMPER OUTLET,THERMAL ZONE: ZONE2 SUPPLY INLET,Air Nodes
 Component Set,86,AIRTERMINAL:SINGLEDUCT:VAV:REHEAT,THERMAL ZONE: ZONE3 VAV REHEAT,COIL:HEATING:WATER,THERMAL ZONE: ZONE3 REHEAT COIL,THERMAL ZONE: ZONE3 DAMPER OUTLET,THERMAL ZONE: ZONE3 SUPPLY INLET,Air Nodes
 Component Set,87,AIRTERMINAL:SINGLEDUCT:VAV:REHEAT,THERMAL ZONE: ZONE4 VAV REHEAT,COIL:HEATING:WATER,THERMAL ZONE: ZONE4 REHEAT COIL,THERMAL ZONE: ZONE4 DAMPER OUTLET,THERMAL ZONE: ZONE4 SUPPLY INLET,Air Nodes
 Component Set,88,AIRTERMINAL:SINGLEDUCT:VAV:REHEAT,THERMAL ZONE: ZONE5 VAV REHEAT,COIL:HEATING:WATER,THERMAL ZONE: ZONE5 REHEAT COIL,THERMAL ZONE: ZONE5 DAMPER OUTLET,THERMAL ZONE: ZONE5 SUPPLY INLET,Air Nodes
 Component Set,89,AIRTERMINAL:SINGLEDUCT:VAV:REHEAT,THERMAL ZONE: ZONE6 VAV REHEAT,COIL:HEATING:WATER,THERMAL ZONE: ZONE6 REHEAT COIL,THERMAL ZONE: ZONE6 DAMPER OUTLET,THERMAL ZONE: ZONE6 SUPPLY INLET,Air Nodes
 Component Set,90,AIRTERMINAL:SINGLEDUCT:VAV:REHEAT,THERMAL ZONE: ZONE7 VAV REHEAT,COIL:HEATING:WATER,THERMAL ZONE: ZONE7 REHEAT COIL,THERMAL ZONE: ZONE7 DAMPER OUTLET,THERMAL ZONE: ZONE7 SUPPLY INLET,Air Nodes
 Component Set,91,AIRTERMINAL:SINGLEDUCT:VAV:REHEAT,THERMAL ZONE: ZONE8 VAV REHEAT,COIL:HEATING:WATER,THERMAL ZONE: ZONE8 REHEAT COIL,THERMAL ZONE: ZONE8 DAMPER OUTLET,THERMAL ZONE: ZONE8 SUPPLY INLET,Air Nodes
 Component Set,92,AIRTERMINAL:SINGLEDUCT:VAV:REHEAT,THERMAL ZONE: ZONE9 VAV REHEAT,COIL:HEATING:WATER,THERMAL ZONE: ZONE9 REHEAT COIL,THERMAL ZONE: ZONE9 DAMPER OUTLET,THERMAL ZONE: ZONE9 SUPPLY INLET,Air Nodes
 Component Set,93,AIRTERMINAL:SINGLEDUCT:VAV:REHEAT,THERMAL ZONE: ZONE10 VAV REHEAT,COIL:HEATING:WATER,THERMAL ZONE: ZONE10 REHEAT COIL,THERMAL ZONE: ZONE10 DAMPER OUTLET,THERMAL ZONE: ZONE10 SUPPLY INLET,Air Nodes
 Component Set,94,AIRTERMINAL:SINGLEDUCT:VAV:REHEAT,THERMAL ZONE: ZONE11 VAV REHEAT,COIL:HEATING:WATER,THERMAL ZONE: ZONE11 REHEAT COIL,THERMAL ZONE: ZONE11 DAMPER OUTLET,THERMAL ZONE: ZONE11 SUPPLY INLET,Air Nodes
 Component Set,95,AIRTERMINAL:SINGLEDUCT:VAV:REHEAT,THERMAL ZONE: ZONE12 VAV REHEAT,COIL:HEATING:WATER,THERMAL ZONE: ZONE12 REHEAT COIL,THERMAL ZONE: ZONE12 DAMPER OUTLET,THERMAL ZONE: ZONE12 SUPPLY INLET,Air Nodes
 Component Set,96,AIRTERMINAL:SINGLEDUCT:VAV:REHEAT,THERMAL ZONE: ZONE13 VAV REHEAT,COIL:HEATING:WATER,THERMAL ZONE: ZONE13 REHEAT COIL,THERMAL ZONE: ZONE13 DAMPER OUTLET,THERMAL ZONE: ZONE13 SUPPLY INLET,Air Nodes
 Component Set,97,AIRTERMINAL:SINGLEDUCT:VAV:REHEAT,THERMAL ZONE: ZONE14 VAV REHEAT,COIL:HEATING:WATER,THERMAL ZONE: ZONE14 REHEAT COIL,THERMAL ZONE: ZONE14 DAMPER OUTLET,THERMAL ZONE: ZONE14 SUPPLY INLET,Air Nodes
 Component Set,98,AIRTERMINAL:SINGLEDUCT:VAV:REHEAT,THERMAL ZONE: ZONE15 VAV REHEAT,COIL:HEATING:WATER,THERMAL ZONE: ZONE15 REHEAT COIL,THERMAL ZONE: ZONE15 DAMPER OUTLET,THERMAL ZONE: ZONE15 SUPPLY INLET,Air Nodes
 Component Set,99,AIRTERMINAL:SINGLEDUCT:VAV:REHEAT,THERMAL ZONE: ZONE16 VAV REHEAT,COIL:HEATING:WATER,THERMAL ZONE: ZONE16 REHEAT COIL,THERMAL ZONE: ZONE16 DAMPER OUTLET,THERMAL ZONE: ZONE16 SUPPLY INLET,Air Nodes
 Component Set,100,AIRTERMINAL:SINGLEDUCT:VAV:REHEAT,THERMAL ZONE: ZONE17 VAV REHEAT,COIL:HEATING:WATER,THERMAL ZONE: ZONE17 REHEAT COIL,THERMAL ZONE: ZONE17 DAMPER OUTLET,THERMAL ZONE: ZONE17 SUPPLY INLET,Air Nodes
 Component Set,101,AIRTERMINAL:SINGLEDUCT:VAV:REHEAT,THERMAL ZONE: ZONE18 VAV REHEAT,COIL:HEATING:WATER,THERMAL ZONE: ZONE18 REHEAT COIL,THERMAL ZONE: ZONE18 DAMPER OUTLET,THERMAL ZONE: ZONE18 SUPPLY INLET,Air Nodes
 Component Set,102,AIRTERMINAL:SINGLEDUCT:VAV:REHEAT,THERMAL ZONE: ZONE19 VAV REHEAT,COIL:HEATING:WATER,THERMAL ZONE: ZONE19 REHEAT COIL,THERMAL ZONE: ZONE19 DAMPER OUTLET,THERMAL ZONE: ZONE19 SUPPLY INLET,Air Nodes
 Component Set,103,AIRTERMINAL:SINGLEDUCT:VAV:REHEAT,THERMAL ZONE: ZONE20 VAV REHEAT,COIL:HEATING:WATER,THERMAL ZONE: ZONE20 REHEAT COIL,THERMAL ZONE: ZONE20 DAMPER OUTLET,THERMAL ZONE: ZONE20 SUPPLY INLET,Air Nodes
 Component Set,104,AIRTERMINAL:SINGLEDUCT:VAV:REHEAT,THERMAL ZONE: ZONE21 VAV REHEAT,COIL:HEATING:WATER,THERMAL ZONE: ZONE21 REHEAT COIL,THERMAL ZONE: ZONE21 DAMPER OUTLET,THERMAL ZONE: ZONE21 SUPPLY INLET,Air Nodes
 Component Set,105,AIRTERMINAL:SINGLEDUCT:VAV:REHEAT,THERMAL ZONE: ZONE22 VAV REHEAT,COIL:HEATING:WATER,THERMAL ZONE: ZONE22 REHEAT COIL,THERMAL ZONE: ZONE22 DAMPER OUTLET,THERMAL ZONE: ZONE22 SUPPLY INLET,Air Nodes
 Component Set,106,AIRTERMINAL:SINGLEDUCT:VAV:REHEAT,THERMAL ZONE: ZONE23 VAV REHEAT,COIL:HEATING:WATER,THERMAL ZONE: ZONE23 REHEAT COIL,THERMAL ZONE: ZONE23 DAMPER OUTLET,THERMAL ZONE: ZONE23 SUPPLY INLET,Air Nodes
 Component Set,107,AIRTERMINAL:SINGLEDUCT:VAV:REHEAT,THERMAL ZONE: ZONE24 VAV REHEAT,COIL:HEATING:WATER,THERMAL ZONE: ZONE24 REHEAT COIL,THERMAL ZONE: ZONE24 DAMPER OUTLET,THERMAL ZONE: ZONE24 SUPPLY INLET,Air Nodes
 Component Set,108,AIRTERMINAL:SINGLEDUCT:VAV:REHEAT,THERMAL ZONE: ZONE25 VAV REHEAT,COIL:HEATING:WATER,THERMAL ZONE: ZONE25 REHEAT COIL,THERMAL ZONE: ZONE25 DAMPER OUTLET,THERMAL ZONE: ZONE25 SUPPLY INLET,Air Nodes
 Component Set,109,AIRTERMINAL:SINGLEDUCT:VAV:REHEAT,THERMAL ZONE: ZONE26 VAV REHEAT,COIL:HEATING:WATER,THERMAL ZONE: ZONE26 REHEAT COIL,THERMAL ZONE: ZONE26 DAMPER OUTLET,THERMAL ZONE: ZONE26 SUPPLY INLET,Air Nodes
 Component Set,110,AIRTERMINAL:SINGLEDUCT:VAV:REHEAT,THERMAL ZONE: ZONE27 VAV REHEAT,COIL:HEATING:WATER,THERMAL ZONE: ZONE27 REHEAT COIL,THERMAL ZONE: ZONE27 DAMPER OUTLET,THERMAL ZONE: ZONE27 SUPPLY INLET,Air Nodes
 Component Set,111,AIRLOOPHVAC:OUTDOORAIRSYSTEM,VAV SYS 1 OA SYSTEM,OUTDOORAIR:MIXER,VAV SYS 1 OA MIXING BOX,VAV SYS 1 OUTSIDE AIR INLET,VAV SYS 1 MIXED AIR OUTLET,Air Nodes
! ===============================================================
! <# Plant Loops>,<Number of Plant Loops>
 #Plant Loops,2
! <Plant Loop>,<Plant Loop Name>,<Loop Type>,<Inlet Node Name>,<Outlet Node Name>,<Branch List>,<Connector List>
! <Plant Loop Connector>,<Connector Type>,<Connector Name>,<Loop Name>,<Loop Type>,<Number of Inlets/Outlets>
! <Plant Loop Connector Branches>,<Connector Node Count>,<Connector Type>,<Connector Name>,<Inlet Branch>,<Outlet Branch>,<Loop Name>,<Loop Type>
! <Plant Loop Connector Nodes>,<Connector Node Count>,<Connector Type>,<Connector Name>,<Inlet Node>,<Outlet Node>,<Loop Name>,<Loop Type>
! <Plant Loop Supply Connection>,<Plant Loop Name>,<Supply Side Outlet Node Name>,<Demand Side Inlet Node Name>
! <Plant Loop Return Connection>,<Plant Loop Name>,<Demand Side Outlet Node Name>,<Supply Side Inlet Node Name>
 Plant Loop,HOT WATER LOOP HOT WATER LOOP,Demand,HOT WATER LOOP HW DEMAND INLET,HOT WATER LOOP HW DEMAND OUTLET,HOT WATER LOOP HW DEMAND SIDE BRANCHES,HOT WATER LOOP HW DEMAND SIDE CONNECTORS
   Plant Loop Connector,Splitter,HOT WATER LOOP HW DEMAND SPLITTER,HOT WATER LOOP HOT WATER LOOP,Demand,29
     Plant Loop Connector Branches,1,Splitter,HOT WATER LOOP HW DEMAND SPLITTER,HOT WATER LOOP HW DEMAND INLET BRANCH,HOT WATER LOOP HW DEMAND BYPASS BRANCH,HOT WATER LOOP HOT WATER LOOP,Demand
     Plant Loop Connector Nodes,   1,Splitter,HOT WATER LOOP HW DEMAND SPLITTER,HOT WATER LOOP HW DEMAND INLET PIPE OUTLET,HOT WATER LOOP HW DEMAND BYPASS INLET,HOT WATER LOOP HOT WATER LOOP,Demand
     Plant Loop Connector Branches,2,Splitter,HOT WATER LOOP HW DEMAND SPLITTER,HOT WATER LOOP HW DEMAND INLET BRANCH,THERMAL ZONE: ZONE1 REHEAT COIL HW BRANCH,HOT WATER LOOP HOT WATER LOOP,Demand
     Plant Loop Connector Nodes,   2,Splitter,HOT WATER LOOP HW DEMAND SPLITTER,HOT WATER LOOP HW DEMAND INLET PIPE OUTLET,THERMAL ZONE: ZONE1 REHEAT COIL HW INLET,HOT WATER LOOP HOT WATER LOOP,Demand
     Plant Loop Connector Branches,3,Splitter,HOT WATER LOOP HW DEMAND SPLITTER,HOT WATER LOOP HW DEMAND INLET BRANCH,THERMAL ZONE: ZONE2 REHEAT COIL HW BRANCH,HOT WATER LOOP HOT WATER LOOP,Demand
     Plant Loop Connector Nodes,   3,Splitter,HOT WATER LOOP HW DEMAND SPLITTER,HOT WATER LOOP HW DEMAND INLET PIPE OUTLET,THERMAL ZONE: ZONE2 REHEAT COIL HW INLET,HOT WATER LOOP HOT WATER LOOP,Demand
     Plant Loop Connector Branches,4,Splitter,HOT WATER LOOP HW DEMAND SPLITTER,HOT WATER LOOP HW DEMAND INLET BRANCH,THERMAL ZONE: ZONE3 REHEAT COIL HW BRANCH,HOT WATER LOOP HOT WATER LOOP,Demand
     Plant Loop Connector Nodes,   4,Splitter,HOT WATER LOOP HW DEMAND SPLITTER,HOT WATER LOOP HW DEMAND INLET PIPE OUTLET,THERMAL ZONE: ZONE3 REHEAT COIL HW INLET,HOT WATER LOOP HOT WATER LOOP,Demand
     Plant Loop Connector Branches,5,Splitter,HOT WATER LOOP HW DEMAND SPLITTER,HOT WATER LOOP HW DEMAND INLET BRANCH,THERMAL ZONE: ZONE4 REHEAT COIL HW BRANCH,HOT WATER LOOP HOT WATER LOOP,Demand
     Plant Loop Connector Nodes,   5,Splitter,HOT WATER LOOP HW DEMAND SPLITTER,HOT WATER LOOP HW DEMAND INLET PIPE OUTLET,THERMAL ZONE: ZONE4 REHEAT COIL HW INLET,HOT WATER LOOP HOT WATER LOOP,Demand
     Plant Loop Connector Branches,6,Splitter,HOT WATER LOOP HW DEMAND SPLITTER,HOT WATER LOOP HW DEMAND INLET BRANCH,THERMAL ZONE: ZONE5 REHEAT COIL HW BRANCH,HOT WATER LOOP HOT WATER LOOP,Demand
     Plant Loop Connector Nodes,   6,Splitter,HOT WATER LOOP HW DEMAND SPLITTER,HOT WATER LOOP HW DEMAND INLET PIPE OUTLET,THERMAL ZONE: ZONE5 REHEAT COIL HW INLET,HOT WATER LOOP HOT WATER LOOP,Demand
     Plant Loop Connector Branches,7,Splitter,HOT WATER LOOP HW DEMAND SPLITTER,HOT WATER LOOP HW DEMAND INLET BRANCH,THERMAL ZONE: ZONE6 REHEAT COIL HW BRANCH,HOT WATER LOOP HOT WATER LOOP,Demand
     Plant Loop Connector Nodes,   7,Splitter,HOT WATER LOOP HW DEMAND SPLITTER,HOT WATER LOOP HW DEMAND INLET PIPE OUTLET,THERMAL ZONE: ZONE6 REHEAT COIL HW INLET,HOT WATER LOOP HOT WATER LOOP,Demand
     Plant Loop Connector Branches,8,Splitter,HOT WATER LOOP HW DEMAND SPLITTER,HOT WATER LOOP HW DEMAND INLET BRANCH,THERMAL ZONE: ZONE7 REHEAT COIL HW BRANCH,HOT WATER LOOP HOT WATER LOOP,Demand
     Plant Loop Connector Nodes,   8,Splitter,HOT WATER LOOP HW DEMAND SPLITTER,HOT WATER LOOP HW DEMAND INLET PIPE OUTLET,THERMAL ZONE: ZONE7 REHEAT COIL HW INLET,HOT WATER LOOP HOT WATER LOOP,Demand
     Plant Loop Connector Branches,9,Splitter,HOT WATER LOOP HW DEMAND SPLITTER,HOT WATER LOOP HW DEMAND INLET BRANCH,THERMAL ZONE: ZONE8 REHEAT COIL HW BRANCH,HOT WATER LOOP HOT WATER LOOP,Demand
     Plant Loop Connector Nodes,   9,Splitter,HOT WATER LOOP HW DEMAND SPLITTER,HOT WATER LOOP HW DEMAND INLET PIPE OUTLET,THERMAL ZONE: ZONE8 REHEAT COIL HW INLET,HOT WATER LOOP HOT WATER LOOP,Demand
     Plant Loop Connector Branches,10,Splitter,HOT WATER LOOP HW DEMAND SPLITTER,HOT WATER LOOP HW DEMAND INLET BRANCH,THERMAL ZONE: ZONE9 REHEAT COIL HW BRANCH,HOT WATER LOOP HOT WATER LOOP,Demand
     Plant Loop Connector Nodes,   10,Splitter,HOT WATER LOOP HW DEMAND SPLITTER,HOT WATER LOOP HW DEMAND INLET PIPE OUTLET,THERMAL ZONE: ZONE9 REHEAT COIL HW INLET,HOT WATER LOOP HOT WATER LOOP,Demand
     Plant Loop Connector Branches,11,Splitter,HOT WATER LOOP HW DEMAND SPLITTER,HOT WATER LOOP HW DEMAND INLET BRANCH,THERMAL ZONE: ZONE10 REHEAT COIL HW BRANCH,HOT WATER LOOP HOT WATER LOOP,Demand
     Plant Loop Connector Nodes,   11,Splitter,HOT WATER LOOP HW DEMAND SPLITTER,HOT WATER LOOP HW DEMAND INLET PIPE OUTLET,THERMAL ZONE: ZONE10 REHEAT COIL HW INLET,HOT WATER LOOP HOT WATER LOOP,Demand
     Plant Loop Connector Branches,12,Splitter,HOT WATER LOOP HW DEMAND SPLITTER,HOT WATER LOOP HW DEMAND INLET BRANCH,THERMAL ZONE: ZONE11 REHEAT COIL HW BRANCH,HOT WATER LOOP HOT WATER LOOP,Demand
     Plant Loop Connector Nodes,   12,Splitter,HOT WATER LOOP HW DEMAND SPLITTER,HOT WATER LOOP HW DEMAND INLET PIPE OUTLET,THERMAL ZONE: ZONE11 REHEAT COIL HW INLET,HOT WATER LOOP HOT WATER LOOP,Demand
     Plant Loop Connector Branches,13,Splitter,HOT WATER LOOP HW DEMAND SPLITTER,HOT WATER LOOP HW DEMAND INLET BRANCH,THERMAL ZONE: ZONE12 REHEAT COIL HW BRANCH,HOT WATER LOOP HOT WATER LOOP,Demand
     Plant Loop Connector Nodes,   13,Splitter,HOT WATER LOOP HW DEMAND SPLITTER,HOT WATER LOOP HW DEMAND INLET PIPE OUTLET,THERMAL ZONE: ZONE12 REHEAT COIL HW INLET,HOT WATER LOOP HOT WATER LOOP,Demand
     Plant Loop Connector Branches,14,Splitter,HOT WATER LOOP HW DEMAND SPLITTER,HOT WATER LOOP HW DEMAND INLET BRANCH,THERMAL ZONE: ZONE13 REHEAT COIL HW BRANCH,HOT WATER LOOP HOT WATER LOOP,Demand
     Plant Loop Connector Nodes,   14,Splitter,HOT WATER LOOP HW DEMAND SPLITTER,HOT WATER LOOP HW DEMAND INLET PIPE OUTLET,THERMAL ZONE: ZONE13 REHEAT COIL HW INLET,HOT WATER LOOP HOT WATER LOOP,Demand
     Plant Loop Connector Branches,15,Splitter,HOT WATER LOOP HW DEMAND SPLITTER,HOT WATER LOOP HW DEMAND INLET BRANCH,THERMAL ZONE: ZONE14 REHEAT COIL HW BRANCH,HOT WATER LOOP HOT WATER LOOP,Demand
     Plant Loop Connector Nodes,   15,Splitter,HOT WATER LOOP HW DEMAND SPLITTER,HOT WATER LOOP HW DEMAND INLET PIPE OUTLET,THERMAL ZONE: ZONE14 REHEAT COIL HW INLET,HOT WATER LOOP HOT WATER LOOP,Demand
     Plant Loop Connector Branches,16,Splitter,HOT WATER LOOP HW DEMAND SPLITTER,HOT WATER LOOP HW DEMAND INLET BRANCH,THERMAL ZONE: ZONE15 REHEAT COIL HW BRANCH,HOT WATER LOOP HOT WATER LOOP,Demand
     Plant Loop Connector Nodes,   16,Splitter,HOT WATER LOOP HW DEMAND SPLITTER,HOT WATER LOOP HW DEMAND INLET PIPE OUTLET,THERMAL ZONE: ZONE15 REHEAT COIL HW INLET,HOT WATER LOOP HOT WATER LOOP,Demand
     Plant Loop Connector Branches,17,Splitter,HOT WATER LOOP HW DEMAND SPLITTER,HOT WATER LOOP HW DEMAND INLET BRANCH,THERMAL ZONE: ZONE16 REHEAT COIL HW BRANCH,HOT WATER LOOP HOT WATER LOOP,Demand
     Plant Loop Connector Nodes,   17,Splitter,HOT WATER LOOP HW DEMAND SPLITTER,HOT WATER LOOP HW DEMAND INLET PIPE OUTLET,THERMAL ZONE: ZONE16 REHEAT COIL HW INLET,HOT WATER LOOP HOT WATER LOOP,Demand
     Plant Loop Connector Branches,18,Splitter,HOT WATER LOOP HW DEMAND SPLITTER,HOT WATER LOOP HW DEMAND INLET BRANCH,THERMAL ZONE: ZONE17 REHEAT COIL HW BRANCH,HOT WATER LOOP HOT WATER LOOP,Demand
     Plant Loop Connector Nodes,   18,Splitter,HOT WATER LOOP HW DEMAND SPLITTER,HOT WATER LOOP HW DEMAND INLET PIPE OUTLET,THERMAL ZONE: ZONE17 REHEAT COIL HW INLET,HOT WATER LOOP HOT WATER LOOP,Demand
     Plant Loop Connector Branches,19,Splitter,HOT WATER LOOP HW DEMAND SPLITTER,HOT WATER LOOP HW DEMAND INLET BRANCH,THERMAL ZONE: ZONE18 REHEAT COIL HW BRANCH,HOT WATER LOOP HOT WATER LOOP,Demand
     Plant Loop Connector Nodes,   19,Splitter,HOT WATER LOOP HW DEMAND SPLITTER,HOT WATER LOOP HW DEMAND INLET PIPE OUTLET,THERMAL ZONE: ZONE18 REHEAT COIL HW INLET,HOT WATER LOOP HOT WATER LOOP,Demand
     Plant Loop Connector Branches,20,Splitter,HOT WATER LOOP HW DEMAND SPLITTER,HOT WATER LOOP HW DEMAND INLET BRANCH,THERMAL ZONE: ZONE19 REHEAT COIL HW BRANCH,HOT WATER LOOP HOT WATER LOOP,Demand
     Plant Loop Connector Nodes,   20,Splitter,HOT WATER LOOP HW DEMAND SPLITTER,HOT WATER LOOP HW DEMAND INLET PIPE OUTLET,THERMAL ZONE: ZONE19 REHEAT COIL HW INLET,HOT WATER LOOP HOT WATER LOOP,Demand
     Plant Loop Connector Branches,21,Splitter,HOT WATER LOOP HW DEMAND SPLITTER,HOT WATER LOOP HW DEMAND INLET BRANCH,THERMAL ZONE: ZONE20 REHEAT COIL HW BRANCH,HOT WATER LOOP HOT WATER LOOP,Demand
     Plant Loop Connector Nodes,   21,Splitter,HOT WATER LOOP HW DEMAND SPLITTER,HOT WATER LOOP HW DEMAND INLET PIPE OUTLET,THERMAL ZONE: ZONE20 REHEAT COIL HW INLET,HOT WATER LOOP HOT WATER LOOP,Demand
     Plant Loop Connector Branches,22,Splitter,HOT WATER LOOP HW DEMAND SPLITTER,HOT WATER LOOP HW DEMAND INLET BRANCH,THERMAL ZONE: ZONE21 REHEAT COIL HW BRANCH,HOT WATER LOOP HOT WATER LOOP,Demand
     Plant Loop Connector Nodes,   22,Splitter,HOT WATER LOOP HW DEMAND SPLITTER,HOT WATER LOOP HW DEMAND INLET PIPE OUTLET,THERMAL ZONE: ZONE21 REHEAT COIL HW INLET,HOT WATER LOOP HOT WATER LOOP,Demand
     Plant Loop Connector Branches,23,Splitter,HOT WATER LOOP HW DEMAND SPLITTER,HOT WATER LOOP HW DEMAND INLET BRANCH,THERMAL ZONE: ZONE22 REHEAT COIL HW BRANCH,HOT WATER LOOP HOT WATER LOOP,Demand
     Plant Loop Connector Nodes,   23,Splitter,HOT WATER LOOP HW DEMAND SPLITTER,HOT WATER LOOP HW DEMAND INLET PIPE OUTLET,THERMAL ZONE: ZONE22 REHEAT COIL HW INLET,HOT WATER LOOP HOT WATER LOOP,Demand
     Plant Loop Connector Branches,24,Splitter,HOT WATER LOOP HW DEMAND SPLITTER,HOT WATER LOOP HW DEMAND INLET BRANCH,THERMAL ZONE: ZONE23 REHEAT COIL HW BRANCH,HOT WATER LOOP HOT WATER LOOP,Demand
     Plant Loop Connector Nodes,   24,Splitter,HOT WATER LOOP HW DEMAND SPLITTER,HOT WATER LOOP HW DEMAND INLET PIPE OUTLET,THERMAL ZONE: ZONE23 REHEAT COIL HW INLET,HOT WATER LOOP HOT WATER LOOP,Demand
     Plant Loop Connector Branches,25,Splitter,HOT WATER LOOP HW DEMAND SPLITTER,HOT WATER LOOP HW DEMAND INLET BRANCH,THERMAL ZONE: ZONE24 REHEAT COIL HW BRANCH,HOT WATER LOOP HOT WATER LOOP,Demand
     Plant Loop Connector Nodes,   25,Splitter,HOT WATER LOOP HW DEMAND SPLITTER,HOT WATER LOOP HW DEMAND INLET PIPE OUTLET,THERMAL ZONE: ZONE24 REHEAT COIL HW INLET,HOT WATER LOOP HOT WATER LOOP,Demand
     Plant Loop Connector Branches,26,Splitter,HOT WATER LOOP HW DEMAND SPLITTER,HOT WATER LOOP HW DEMAND INLET BRANCH,THERMAL ZONE: ZONE25 REHEAT COIL HW BRANCH,HOT WATER LOOP HOT WATER LOOP,Demand
     Plant Loop Connector Nodes,   26,Splitter,HOT WATER LOOP HW DEMAND SPLITTER,HOT WATER LOOP HW DEMAND INLET PIPE OUTLET,THERMAL ZONE: ZONE25 REHEAT COIL HW INLET,HOT WATER LOOP HOT WATER LOOP,Demand
     Plant Loop Connector Branches,27,Splitter,HOT WATER LOOP HW DEMAND SPLITTER,HOT WATER LOOP HW DEMAND INLET BRANCH,THERMAL ZONE: ZONE26 REHEAT COIL HW BRANCH,HOT WATER LOOP HOT WATER LOOP,Demand
     Plant Loop Connector Nodes,   27,Splitter,HOT WATER LOOP HW DEMAND SPLITTER,HOT WATER LOOP HW DEMAND INLET PIPE OUTLET,THERMAL ZONE: ZONE26 REHEAT COIL HW INLET,HOT WATER LOOP HOT WATER LOOP,Demand
     Plant Loop Connector Branches,28,Splitter,HOT WATER LOOP HW DEMAND SPLITTER,HOT WATER LOOP HW DEMAND INLET BRANCH,THERMAL ZONE: ZONE27 REHEAT COIL HW BRANCH,HOT WATER LOOP HOT WATER LOOP,Demand
     Plant Loop Connector Nodes,   28,Splitter,HOT WATER LOOP HW DEMAND SPLITTER,HOT WATER LOOP HW DEMAND INLET PIPE OUTLET,THERMAL ZONE: ZONE27 REHEAT COIL HW INLET,HOT WATER LOOP HOT WATER LOOP,Demand
     Plant Loop Connector Branches,29,Splitter,HOT WATER LOOP HW DEMAND SPLITTER,HOT WATER LOOP HW DEMAND INLET BRANCH,VAV SYS 1 HEATING COIL HW BRANCH,HOT WATER LOOP HOT WATER LOOP,Demand
     Plant Loop Connector Nodes,   29,Splitter,HOT WATER LOOP HW DEMAND SPLITTER,HOT WATER LOOP HW DEMAND INLET PIPE OUTLET,VAV SYS 1 HEATING COIL HW INLET,HOT WATER LOOP HOT WATER LOOP,Demand
   Plant Loop Connector,Mixer,HOT WATER LOOP HW DEMAND MIXER,HOT WATER LOOP HOT WATER LOOP,Demand,29
     Plant Loop Connector Branches,1,Mixer,HOT WATER LOOP HW DEMAND MIXER,HOT WATER LOOP HW DEMAND BYPASS BRANCH,HOT WATER LOOP HW DEMAND OUTLET BRANCH,HOT WATER LOOP HOT WATER LOOP,Demand
     Plant Loop Connector Nodes,   1,Mixer,HOT WATER LOOP HW DEMAND MIXER,HOT WATER LOOP HW DEMAND BYPASS OUTLET,HOT WATER LOOP HW DEMAND OUTLET PIPE INLET,HOT WATER LOOP HOT WATER LOOP,Demand
     Plant Loop Connector Branches,2,Mixer,HOT WATER LOOP HW DEMAND MIXER,THERMAL ZONE: ZONE1 REHEAT COIL HW BRANCH,HOT WATER LOOP HW DEMAND OUTLET BRANCH,HOT WATER LOOP HOT WATER LOOP,Demand
     Plant Loop Connector Nodes,   2,Mixer,HOT WATER LOOP HW DEMAND MIXER,THERMAL ZONE: ZONE1 REHEAT COIL HW OUTLET,HOT WATER LOOP HW DEMAND OUTLET PIPE INLET,HOT WATER LOOP HOT WATER LOOP,Demand
     Plant Loop Connector Branches,3,Mixer,HOT WATER LOOP HW DEMAND MIXER,THERMAL ZONE: ZONE2 REHEAT COIL HW BRANCH,HOT WATER LOOP HW DEMAND OUTLET BRANCH,HOT WATER LOOP HOT WATER LOOP,Demand
     Plant Loop Connector Nodes,   3,Mixer,HOT WATER LOOP HW DEMAND MIXER,THERMAL ZONE: ZONE2 REHEAT COIL HW OUTLET,HOT WATER LOOP HW DEMAND OUTLET PIPE INLET,HOT WATER LOOP HOT WATER LOOP,Demand
     Plant Loop Connector Branches,4,Mixer,HOT WATER LOOP HW DEMAND MIXER,THERMAL ZONE: ZONE3 REHEAT COIL HW BRANCH,HOT WATER LOOP HW DEMAND OUTLET BRANCH,HOT WATER LOOP HOT WATER LOOP,Demand
[...]
 Non-Parent Node Connection,THERMAL ZONE: ZONE16 DAMPER OUTLET,COIL:HEATING:WATER,THERMAL ZONE: ZONE16 REHEAT COIL,Inlet,1
 Non-Parent Node Connection,THERMAL ZONE: ZONE16 SUPPLY INLET,COIL:HEATING:WATER,THERMAL ZONE: ZONE16 REHEAT COIL,Outlet,1
 Non-Parent Node Connection,THERMAL ZONE: ZONE17 REHEAT COIL HW INLET,COIL:HEATING:WATER,THERMAL ZONE: ZONE17 REHEAT COIL,Inlet,2
 Non-Parent Node Connection,THERMAL ZONE: ZONE17 REHEAT COIL HW OUTLET,COIL:HEATING:WATER,THERMAL ZONE: ZONE17 REHEAT COIL,Outlet,2
 Non-Parent Node Connection,THERMAL ZONE: ZONE17 DAMPER OUTLET,COIL:HEATING:WATER,THERMAL ZONE: ZONE17 REHEAT COIL,Inlet,1
 Non-Parent Node Connection,THERMAL ZONE: ZONE17 SUPPLY INLET,COIL:HEATING:WATER,THERMAL ZONE: ZONE17 REHEAT COIL,Outlet,1
 Non-Parent Node Connection,THERMAL ZONE: ZONE18 REHEAT COIL HW INLET,COIL:HEATING:WATER,THERMAL ZONE: ZONE18 REHEAT COIL,Inlet,2
 Non-Parent Node Connection,THERMAL ZONE: ZONE18 REHEAT COIL HW OUTLET,COIL:HEATING:WATER,THERMAL ZONE: ZONE18 REHEAT COIL,Outlet,2
 Non-Parent Node Connection,THERMAL ZONE: ZONE18 DAMPER OUTLET,COIL:HEATING:WATER,THERMAL ZONE: ZONE18 REHEAT COIL,Inlet,1
 Non-Parent Node Connection,THERMAL ZONE: ZONE18 SUPPLY INLET,COIL:HEATING:WATER,THERMAL ZONE: ZONE18 REHEAT COIL,Outlet,1
 Non-Parent Node Connection,THERMAL ZONE: ZONE19 REHEAT COIL HW INLET,COIL:HEATING:WATER,THERMAL ZONE: ZONE19 REHEAT COIL,Inlet,2
 Non-Parent Node Connection,THERMAL ZONE: ZONE19 REHEAT COIL HW OUTLET,COIL:HEATING:WATER,THERMAL ZONE: ZONE19 REHEAT COIL,Outlet,2
 Non-Parent Node Connection,THERMAL ZONE: ZONE19 DAMPER OUTLET,COIL:HEATING:WATER,THERMAL ZONE: ZONE19 REHEAT COIL,Inlet,1
 Non-Parent Node Connection,THERMAL ZONE: ZONE19 SUPPLY INLET,COIL:HEATING:WATER,THERMAL ZONE: ZONE19 REHEAT COIL,Outlet,1
 Non-Parent Node Connection,THERMAL ZONE: ZONE20 REHEAT COIL HW INLET,COIL:HEATING:WATER,THERMAL ZONE: ZONE20 REHEAT COIL,Inlet,2
 Non-Parent Node Connection,THERMAL ZONE: ZONE20 REHEAT COIL HW OUTLET,COIL:HEATING:WATER,THERMAL ZONE: ZONE20 REHEAT COIL,Outlet,2
 Non-Parent Node Connection,THERMAL ZONE: ZONE20 DAMPER OUTLET,COIL:HEATING:WATER,THERMAL ZONE: ZONE20 REHEAT COIL,Inlet,1
 Non-Parent Node Connection,THERMAL ZONE: ZONE20 SUPPLY INLET,COIL:HEATING:WATER,THERMAL ZONE: ZONE20 REHEAT COIL,Outlet,1
 Non-Parent Node Connection,THERMAL ZONE: ZONE21 REHEAT COIL HW INLET,COIL:HEATING:WATER,THERMAL ZONE: ZONE21 REHEAT COIL,Inlet,2
 Non-Parent Node Connection,THERMAL ZONE: ZONE21 REHEAT COIL HW OUTLET,COIL:HEATING:WATER,THERMAL ZONE: ZONE21 REHEAT COIL,Outlet,2
 Non-Parent Node Connection,THERMAL ZONE: ZONE21 DAMPER OUTLET,COIL:HEATING:WATER,THERMAL ZONE: ZONE21 REHEAT COIL,Inlet,1
 Non-Parent Node Connection,THERMAL ZONE: ZONE21 SUPPLY INLET,COIL:HEATING:WATER,THERMAL ZONE: ZONE21 REHEAT COIL,Outlet,1
 Non-Parent Node Connection,THERMAL ZONE: ZONE22 REHEAT COIL HW INLET,COIL:HEATING:WATER,THERMAL ZONE: ZONE22 REHEAT COIL,Inlet,2
 Non-Parent Node Connection,THERMAL ZONE: ZONE22 REHEAT COIL HW OUTLET,COIL:HEATING:WATER,THERMAL ZONE: ZONE22 REHEAT COIL,Outlet,2
 Non-Parent Node Connection,THERMAL ZONE: ZONE22 DAMPER OUTLET,COIL:HEATING:WATER,THERMAL ZONE: ZONE22 REHEAT COIL,Inlet,1
 Non-Parent Node Connection,THERMAL ZONE: ZONE22 SUPPLY INLET,COIL:HEATING:WATER,THERMAL ZONE: ZONE22 REHEAT COIL,Outlet,1
 Non-Parent Node Connection,THERMAL ZONE: ZONE23 REHEAT COIL HW INLET,COIL:HEATING:WATER,THERMAL ZONE: ZONE23 REHEAT COIL,Inlet,2
 Non-Parent Node Connection,THERMAL ZONE: ZONE23 REHEAT COIL HW OUTLET,COIL:HEATING:WATER,THERMAL ZONE: ZONE23 REHEAT COIL,Outlet,2
 Non-Parent Node Connection,THERMAL ZONE: ZONE23 DAMPER OUTLET,COIL:HEATING:WATER,THERMAL ZONE: ZONE23 REHEAT COIL,Inlet,1
 Non-Parent Node Connection,THERMAL ZONE: ZONE23 SUPPLY INLET,COIL:HEATING:WATER,THERMAL ZONE: ZONE23 REHEAT COIL,Outlet,1
 Non-Parent Node Connection,THERMAL ZONE: ZONE24 REHEAT COIL HW INLET,COIL:HEATING:WATER,THERMAL ZONE: ZONE24 REHEAT COIL,Inlet,2
 Non-Parent Node Connection,THERMAL ZONE: ZONE24 REHEAT COIL HW OUTLET,COIL:HEATING:WATER,THERMAL ZONE: ZONE24 REHEAT COIL,Outlet,2
 Non-Parent Node Connection,THERMAL ZONE: ZONE24 DAMPER OUTLET,COIL:HEATING:WATER,THERMAL ZONE: ZONE24 REHEAT COIL,Inlet,1
 Non-Parent Node Connection,THERMAL ZONE: ZONE24 SUPPLY INLET,COIL:HEATING:WATER,THERMAL ZONE: ZONE24 REHEAT COIL,Outlet,1
 Non-Parent Node Connection,THERMAL ZONE: ZONE25 REHEAT COIL HW INLET,COIL:HEATING:WATER,THERMAL ZONE: ZONE25 REHEAT COIL,Inlet,2
 Non-Parent Node Connection,THERMAL ZONE: ZONE25 REHEAT COIL HW OUTLET,COIL:HEATING:WATER,THERMAL ZONE: ZONE25 REHEAT COIL,Outlet,2
 Non-Parent Node Connection,THERMAL ZONE: ZONE25 DAMPER OUTLET,COIL:HEATING:WATER,THERMAL ZONE: ZONE25 REHEAT COIL,Inlet,1
 Non-Parent Node Connection,THERMAL ZONE: ZONE25 SUPPLY INLET,COIL:HEATING:WATER,THERMAL ZONE: ZONE25 REHEAT COIL,Outlet,1
 Non-Parent Node Connection,THERMAL ZONE: ZONE26 REHEAT COIL HW INLET,COIL:HEATING:WATER,THERMAL ZONE: ZONE26 REHEAT COIL,Inlet,2
 Non-Parent Node Connection,THERMAL ZONE: ZONE26 REHEAT COIL HW OUTLET,COIL:HEATING:WATER,THERMAL ZONE: ZONE26 REHEAT COIL,Outlet,2
 Non-Parent Node Connection,THERMAL ZONE: ZONE26 DAMPER OUTLET,COIL:HEATING:WATER,THERMAL ZONE: ZONE26 REHEAT COIL,Inlet,1
 Non-Parent Node Connection,THERMAL ZONE: ZONE26 SUPPLY INLET,COIL:HEATING:WATER,THERMAL ZONE: ZONE26 REHEAT COIL,Outlet,1
 Non-Parent Node Connection,THERMAL ZONE: ZONE27 REHEAT COIL HW INLET,COIL:HEATING:WATER,THERMAL ZONE: ZONE27 REHEAT COIL,Inlet,2
 Non-Parent Node Connection,THERMAL ZONE: ZONE27 REHEAT COIL HW OUTLET,COIL:HEATING:WATER,THERMAL ZONE: ZONE27 REHEAT COIL,Outlet,2
 Non-Parent Node Connection,THERMAL ZONE: ZONE27 DAMPER OUTLET,COIL:HEATING:WATER,THERMAL ZONE: ZONE27 REHEAT COIL,Inlet,1
 Non-Parent Node Connection,THERMAL ZONE: ZONE27 SUPPLY INLET,COIL:HEATING:WATER,THERMAL ZONE: ZONE27 REHEAT COIL,Outlet,1
 Non-Parent Node Connection,VAV SYS 1 HEATING COIL HW INLET,COIL:HEATING:WATER,VAV SYS 1 HEATING COIL,Inlet,2
 Non-Parent Node Connection,VAV SYS 1 HEATING COIL HW OUTLET,COIL:HEATING:WATER,VAV SYS 1 HEATING COIL,Outlet,2
 Non-Parent Node Connection,VAV SYS 1 COOLING COIL OUTLET,COIL:HEATING:WATER,VAV SYS 1 HEATING COIL,Inlet,1
 Non-Parent Node Connection,VAV SYS 1 HEATING COIL OUTLET,COIL:HEATING:WATER,VAV SYS 1 HEATING COIL,Outlet,1
 Non-Parent Node Connection,VAV SYS 1 COOLING COIL CHW INLET,COIL:COOLING:WATER,VAV SYS 1 COOLING COIL,Inlet,2
 Non-Parent Node Connection,VAV SYS 1 COOLING COIL CHW OUTLET,COIL:COOLING:WATER,VAV SYS 1 COOLING COIL,Outlet,2
 Non-Parent Node Connection,VAV SYS 1 MIXED AIR OUTLET,COIL:COOLING:WATER,VAV SYS 1 COOLING COIL,Inlet,1
 Non-Parent Node Connection,VAV SYS 1 COOLING COIL OUTLET,COIL:COOLING:WATER,VAV SYS 1 COOLING COIL,Outlet,1
 Non-Parent Node Connection,THERMAL ZONE: ZONE2 DAMPER OUTLET,AIRTERMINAL:SINGLEDUCT:VAV:REHEAT,THERMAL ZONE: ZONE2 VAV REHEAT,Outlet,1
 Non-Parent Node Connection,THERMAL ZONE: ZONE2 ZONE EQUIP INLET,AIRTERMINAL:SINGLEDUCT:VAV:REHEAT,THERMAL ZONE: ZONE2 VAV REHEAT,Inlet,1
 Non-Parent Node Connection,THERMAL ZONE: ZONE3 DAMPER OUTLET,AIRTERMINAL:SINGLEDUCT:VAV:REHEAT,THERMAL ZONE: ZONE3 VAV REHEAT,Outlet,1
 Non-Parent Node Connection,THERMAL ZONE: ZONE3 ZONE EQUIP INLET,AIRTERMINAL:SINGLEDUCT:VAV:REHEAT,THERMAL ZONE: ZONE3 VAV REHEAT,Inlet,1
 Non-Parent Node Connection,THERMAL ZONE: ZONE4 DAMPER OUTLET,AIRTERMINAL:SINGLEDUCT:VAV:REHEAT,THERMAL ZONE: ZONE4 VAV REHEAT,Outlet,1
 Non-Parent Node Connection,THERMAL ZONE: ZONE4 ZONE EQUIP INLET,AIRTERMINAL:SINGLEDUCT:VAV:REHEAT,THERMAL ZONE: ZONE4 VAV REHEAT,Inlet,1
 Non-Parent Node Connection,THERMAL ZONE: ZONE5 DAMPER OUTLET,AIRTERMINAL:SINGLEDUCT:VAV:REHEAT,THERMAL ZONE: ZONE5 VAV REHEAT,Outlet,1
 Non-Parent Node Connection,THERMAL ZONE: ZONE5 ZONE EQUIP INLET,AIRTERMINAL:SINGLEDUCT:VAV:REHEAT,THERMAL ZONE: ZONE5 VAV REHEAT,Inlet,1
 Non-Parent Node Connection,THERMAL ZONE: ZONE6 DAMPER OUTLET,AIRTERMINAL:SINGLEDUCT:VAV:REHEAT,THERMAL ZONE: ZONE6 VAV REHEAT,Outlet,1
 Non-Parent Node Connection,THERMAL ZONE: ZONE6 ZONE EQUIP INLET,AIRTERMINAL:SINGLEDUCT:VAV:REHEAT,THERMAL ZONE: ZONE6 VAV REHEAT,Inlet,1
 Non-Parent Node Connection,THERMAL ZONE: ZONE7 DAMPER OUTLET,AIRTERMINAL:SINGLEDUCT:VAV:REHEAT,THERMAL ZONE: ZONE7 VAV REHEAT,Outlet,1
 Non-Parent Node Connection,THERMAL ZONE: ZONE7 ZONE EQUIP INLET,AIRTERMINAL:SINGLEDUCT:VAV:REHEAT,THERMAL ZONE: ZONE7 VAV REHEAT,Inlet,1
 Non-Parent Node Connection,THERMAL ZONE: ZONE8 DAMPER OUTLET,AIRTERMINAL:SINGLEDUCT:VAV:REHEAT,THERMAL ZONE: ZONE8 VAV REHEAT,Outlet,1
 Non-Parent Node Connection,THERMAL ZONE: ZONE8 ZONE EQUIP INLET,AIRTERMINAL:SINGLEDUCT:VAV:REHEAT,THERMAL ZONE: ZONE8 VAV REHEAT,Inlet,1
 Non-Parent Node Connection,THERMAL ZONE: ZONE9 DAMPER OUTLET,AIRTERMINAL:SINGLEDUCT:VAV:REHEAT,THERMAL ZONE: ZONE9 VAV REHEAT,Outlet,1
 Non-Parent Node Connection,THERMAL ZONE: ZONE9 ZONE EQUIP INLET,AIRTERMINAL:SINGLEDUCT:VAV:REHEAT,THERMAL ZONE: ZONE9 VAV REHEAT,Inlet,1
 Non-Parent Node Connection,THERMAL ZONE: ZONE10 DAMPER OUTLET,AIRTERMINAL:SINGLEDUCT:VAV:REHEAT,THERMAL ZONE: ZONE10 VAV REHEAT,Outlet,1
 Non-Parent Node Connection,THERMAL ZONE: ZONE10 ZONE EQUIP INLET,AIRTERMINAL:SINGLEDUCT:VAV:REHEAT,THERMAL ZONE: ZONE10 VAV REHEAT,Inlet,1
 Non-Parent Node Connection,THERMAL ZONE: ZONE11 DAMPER OUTLET,AIRTERMINAL:SINGLEDUCT:VAV:REHEAT,THERMAL ZONE: ZONE11 VAV REHEAT,Outlet,1
 Non-Parent Node Connection,THERMAL ZONE: ZONE11 ZONE EQUIP INLET,AIRTERMINAL:SINGLEDUCT:VAV:REHEAT,THERMAL ZONE: ZONE11 VAV REHEAT,Inlet,1
 Non-Parent Node Connection,THERMAL ZONE: ZONE12 DAMPER OUTLET,AIRTERMINAL:SINGLEDUCT:VAV:REHEAT,THERMAL ZONE: ZONE12 VAV REHEAT,Outlet,1
 Non-Parent Node Connection,THERMAL ZONE: ZONE12 ZONE EQUIP INLET,AIRTERMINAL:SINGLEDUCT:VAV:REHEAT,THERMAL ZONE: ZONE12 VAV REHEAT,Inlet,1
 Non-Parent Node Connection,THERMAL ZONE: ZONE13 DAMPER OUTLET,AIRTERMINAL:SINGLEDUCT:VAV:REHEAT,THERMAL ZONE: ZONE13 VAV REHEAT,Outlet,1
 Non-Parent Node Connection,THERMAL ZONE: ZONE13 ZONE EQUIP INLET,AIRTERMINAL:SINGLEDUCT:VAV:REHEAT,THERMAL ZONE: ZONE13 VAV REHEAT,Inlet,1
 Non-Parent Node Connection,THERMAL ZONE: ZONE14 DAMPER OUTLET,AIRTERMINAL:SINGLEDUCT:VAV:REHEAT,THERMAL ZONE: ZONE14 VAV REHEAT,Outlet,1
 Non-Parent Node Connection,THERMAL ZONE: ZONE14 ZONE EQUIP INLET,AIRTERMINAL:SINGLEDUCT:VAV:REHEAT,THERMAL ZONE: ZONE14 VAV REHEAT,Inlet,1
 Non-Parent Node Connection,THERMAL ZONE: ZONE15 DAMPER OUTLET,AIRTERMINAL:SINGLEDUCT:VAV:REHEAT,THERMAL ZONE: ZONE15 VAV REHEAT,Outlet,1
 Non-Parent Node Connection,THERMAL ZONE: ZONE15 ZONE EQUIP INLET,AIRTERMINAL:SINGLEDUCT:VAV:REHEAT,THERMAL ZONE: ZONE15 VAV REHEAT,Inlet,1
 Non-Parent Node Connection,THERMAL ZONE: ZONE16 DAMPER OUTLET,AIRTERMINAL:SINGLEDUCT:VAV:REHEAT,THERMAL ZONE: ZONE16 VAV REHEAT,Outlet,1
 Non-Parent Node Connection,THERMAL ZONE: ZONE16 ZONE EQUIP INLET,AIRTERMINAL:SINGLEDUCT:VAV:REHEAT,THERMAL ZONE: ZONE16 VAV REHEAT,Inlet,1
 Non-Parent Node Connection,THERMAL ZONE: ZONE17 DAMPER OUTLET,AIRTERMINAL:SINGLEDUCT:VAV:REHEAT,THERMAL ZONE: ZONE17 VAV REHEAT,Outlet,1
 Non-Parent Node Connection,THERMAL ZONE: ZONE17 ZONE EQUIP INLET,AIRTERMINAL:SINGLEDUCT:VAV:REHEAT,THERMAL ZONE: ZONE17 VAV REHEAT,Inlet,1
 Non-Parent Node Connection,THERMAL ZONE: ZONE18 DAMPER OUTLET,AIRTERMINAL:SINGLEDUCT:VAV:REHEAT,THERMAL ZONE: ZONE18 VAV REHEAT,Outlet,1
 Non-Parent Node Connection,THERMAL ZONE: ZONE18 ZONE EQUIP INLET,AIRTERMINAL:SINGLEDUCT:VAV:REHEAT,THERMAL ZONE: ZONE18 VAV REHEAT,Inlet,1
 Non-Parent Node Connection,THERMAL ZONE: ZONE19 DAMPER OUTLET,AIRTERMINAL:SINGLEDUCT:VAV:REHEAT,THERMAL ZONE: ZONE19 VAV REHEAT,Outlet,1
 Non-Parent Node Connection,THERMAL ZONE: ZONE19 ZONE EQUIP INLET,AIRTERMINAL:SINGLEDUCT:VAV:REHEAT,THERMAL ZONE: ZONE19 VAV REHEAT,Inlet,1
 Non-Parent Node Connection,THERMAL ZONE: ZONE20 DAMPER OUTLET,AIRTERMINAL:SINGLEDUCT:VAV:REHEAT,THERMAL ZONE: ZONE20 VAV REHEAT,Outlet,1
 Non-Parent Node Connection,THERMAL ZONE: ZONE20 ZONE EQUIP INLET,AIRTERMINAL:SINGLEDUCT:VAV:REHEAT,THERMAL ZONE: ZONE20 VAV REHEAT,Inlet,1
 Non-Parent Node Connection,THERMAL ZONE: ZONE21 DAMPER OUTLET,AIRTERMINAL:SINGLEDUCT:VAV:REHEAT,THERMAL ZONE: ZONE21 VAV REHEAT,Outlet,1
 Non-Parent Node Connection,THERMAL ZONE: ZONE21 ZONE EQUIP INLET,AIRTERMINAL:SINGLEDUCT:VAV:REHEAT,THERMAL ZONE: ZONE21 VAV REHEAT,Inlet,1
 Non-Parent Node Connection,THERMAL ZONE: ZONE22 DAMPER OUTLET,AIRTERMINAL:SINGLEDUCT:VAV:REHEAT,THERMAL ZONE: ZONE22 VAV REHEAT,Outlet,1
 Non-Parent Node Connection,THERMAL ZONE: ZONE22 ZONE EQUIP INLET,AIRTERMINAL:SINGLEDUCT:VAV:REHEAT,THERMAL ZONE: ZONE22 VAV REHEAT,Inlet,1
 Non-Parent Node Connection,THERMAL ZONE: ZONE23 DAMPER OUTLET,AIRTERMINAL:SINGLEDUCT:VAV:REHEAT,THERMAL ZONE: ZONE23 VAV REHEAT,Outlet,1
 Non-Parent Node Connection,THERMAL ZONE: ZONE23 ZONE EQUIP INLET,AIRTERMINAL:SINGLEDUCT:VAV:REHEAT,THERMAL ZONE: ZONE23 VAV REHEAT,Inlet,1
 Non-Parent Node Connection,THERMAL ZONE: ZONE24 DAMPER OUTLET,AIRTERMINAL:SINGLEDUCT:VAV:REHEAT,THERMAL ZONE: ZONE24 VAV REHEAT,Outlet,1
 Non-Parent Node Connection,THERMAL ZONE: ZONE24 ZONE EQUIP INLET,AIRTERMINAL:SINGLEDUCT:VAV:REHEAT,THERMAL ZONE: ZONE24 VAV REHEAT,Inlet,1
 Non-Parent Node Connection,THERMAL ZONE: ZONE25 DAMPER OUTLET,AIRTERMINAL:SINGLEDUCT:VAV:REHEAT,THERMAL ZONE: ZONE25 VAV REHEAT,Outlet,1
 Non-Parent Node Connection,THERMAL ZONE: ZONE25 ZONE EQUIP INLET,AIRTERMINAL:SINGLEDUCT:VAV:REHEAT,THERMAL ZONE: ZONE25 VAV REHEAT,Inlet,1
 Non-Parent Node Connection,THERMAL ZONE: ZONE26 DAMPER OUTLET,AIRTERMINAL:SINGLEDUCT:VAV:REHEAT,THERMAL ZONE: ZONE26 VAV REHEAT,Outlet,1
 Non-Parent Node Connection,THERMAL ZONE: ZONE26 ZONE EQUIP INLET,AIRTERMINAL:SINGLEDUCT:VAV:REHEAT,THERMAL ZONE: ZONE26 VAV REHEAT,Inlet,1
 Non-Parent Node Connection,THERMAL ZONE: ZONE27 DAMPER OUTLET,AIRTERMINAL:SINGLEDUCT:VAV:REHEAT,THERMAL ZONE: ZONE27 VAV REHEAT,Outlet,1
 Non-Parent Node Connection,THERMAL ZONE: ZONE27 ZONE EQUIP INLET,AIRTERMINAL:SINGLEDUCT:VAV:REHEAT,THERMAL ZONE: ZONE27 VAV REHEAT,Inlet,1
 Non-Parent Node Connection,VAV SYS 1 COOLING COIL OUTLET,CONTROLLER:WATERCOIL,VAV SYS 1 COOLING COIL CONTROLLER,Sensor,1
 Non-Parent Node Connection,VAV SYS 1 COOLING COIL CHW INLET,CONTROLLER:WATERCOIL,VAV SYS 1 COOLING COIL CONTROLLER,Actuator,1
 Non-Parent Node Connection,VAV SYS 1 HEATING COIL OUTLET,CONTROLLER:WATERCOIL,VAV SYS 1 HEATING COIL CONTROLLER,Sensor,1
 Non-Parent Node Connection,VAV SYS 1 HEATING COIL HW INLET,CONTROLLER:WATERCOIL,VAV SYS 1 HEATING COIL CONTROLLER,Actuator,1
 Non-Parent Node Connection,THERMAL ZONE: ZONE28 ZONE AIR NODE,AIRLOOPHVAC:RETURNPLENUM,VAV SYS 1 RETURN PLENUM,ZoneNode,1
 Non-Parent Node Connection,VAV SYS 1 RETURN AIR OUTLET,AIRLOOPHVAC:RETURNPLENUM,VAV SYS 1 RETURN PLENUM,Outlet,1
 Non-Parent Node Connection,THERMAL ZONE: ZONE1 RETURN OUTLET,AIRLOOPHVAC:RETURNPLENUM,VAV SYS 1 RETURN PLENUM,Inlet,1
 Non-Parent Node Connection,THERMAL ZONE: ZONE2 RETURN OUTLET,AIRLOOPHVAC:RETURNPLENUM,VAV SYS 1 RETURN PLENUM,Inlet,1
 Non-Parent Node Connection,THERMAL ZONE: ZONE3 RETURN OUTLET,AIRLOOPHVAC:RETURNPLENUM,VAV SYS 1 RETURN PLENUM,Inlet,1
 Non-Parent Node Connection,THERMAL ZONE: ZONE4 RETURN OUTLET,AIRLOOPHVAC:RETURNPLENUM,VAV SYS 1 RETURN PLENUM,Inlet,1
 Non-Parent Node Connection,THERMAL ZONE: ZONE5 RETURN OUTLET,AIRLOOPHVAC:RETURNPLENUM,VAV SYS 1 RETURN PLENUM,Inlet,1
 Non-Parent Node Connection,THERMAL ZONE: ZONE6 RETURN OUTLET,AIRLOOPHVAC:RETURNPLENUM,VAV SYS 1 RETURN PLENUM,Inlet,1
 Non-Parent Node Connection,THERMAL ZONE: ZONE7 RETURN OUTLET,AIRLOOPHVAC:RETURNPLENUM,VAV SYS 1 RETURN PLENUM,Inlet,1
 Non-Parent Node Connection,THERMAL ZONE: ZONE8 RETURN OUTLET,AIRLOOPHVAC:RETURNPLENUM,VAV SYS 1 RETURN PLENUM,Inlet,1
 Non-Parent Node Connection,THERMAL ZONE: ZONE9 RETURN OUTLET,AIRLOOPHVAC:RETURNPLENUM,VAV SYS 1 RETURN PLENUM,Inlet,1
 Non-Parent Node Connection,THERMAL ZONE: ZONE10 RETURN OUTLET,AIRLOOPHVAC:RETURNPLENUM,VAV SYS 1 RETURN PLENUM,Inlet,1
 Non-Parent Node Connection,THERMAL ZONE: ZONE11 RETURN OUTLET,AIRLOOPHVAC:RETURNPLENUM,VAV SYS 1 RETURN PLENUM,Inlet,1
 Non-Parent Node Connection,THERMAL ZONE: ZONE12 RETURN OUTLET,AIRLOOPHVAC:RETURNPLENUM,VAV SYS 1 RETURN PLENUM,Inlet,1
 Non-Parent Node Connection,THERMAL ZONE: ZONE13 RETURN OUTLET,AIRLOOPHVAC:RETURNPLENUM,VAV SYS 1 RETURN PLENUM,Inlet,1
 Non-Parent Node Connection,THERMAL ZONE: ZONE14 RETURN OUTLET,AIRLOOPHVAC:RETURNPLENUM,VAV SYS 1 RETURN PLENUM,Inlet,1
 Non-Parent Node Connection,THERMAL ZONE: ZONE15 RETURN OUTLET,AIRLOOPHVAC:RETURNPLENUM,VAV SYS 1 RETURN PLENUM,Inlet,1
 Non-Parent Node Connection,THERMAL ZONE: ZONE16 RETURN OUTLET,AIRLOOPHVAC:RETURNPLENUM,VAV SYS 1 RETURN PLENUM,Inlet,1
 Non-Parent Node Connection,THERMAL ZONE: ZONE17 RETURN OUTLET,AIRLOOPHVAC:RETURNPLENUM,VAV SYS 1 RETURN PLENUM,Inlet,1
 Non-Parent Node Connection,THERMAL ZONE: ZONE18 RETURN OUTLET,AIRLOOPHVAC:RETURNPLENUM,VAV SYS 1 RETURN PLENUM,Inlet,1
 Non-Parent Node Connection,THERMAL ZONE: ZONE19 RETURN OUTLET,AIRLOOPHVAC:RETURNPLENUM,VAV SYS 1 RETURN PLENUM,Inlet,1
 Non-Parent Node Connection,THERMAL ZONE: ZONE20 RETURN OUTLET,AIRLOOPHVAC:RETURNPLENUM,VAV SYS 1 RETURN PLENUM,Inlet,1
 Non-Parent Node Connection,THERMAL ZONE: ZONE21 RETURN OUTLET,AIRLOOPHVAC:RETURNPLENUM,VAV SYS 1 RETURN PLENUM,Inlet,1
 Non-Parent Node Connection,THERMAL ZONE: ZONE22 RETURN OUTLET,AIRLOOPHVAC:RETURNPLENUM,VAV SYS 1 RETURN PLENUM,Inlet,1
 Non-Parent Node Connection,THERMAL ZONE: ZONE23 RETURN OUTLET,AIRLOOPHVAC:RETURNPLENUM,VAV SYS 1 RETURN PLENUM,Inlet,1
 Non-Parent Node Connection,THERMAL ZONE: ZONE24 RETURN OUTLET,AIRLOOPHVAC:RETURNPLENUM,VAV SYS 1 RETURN PLENUM,Inlet,1
 Non-Parent Node Connection,THERMAL ZONE: ZONE25 RETURN OUTLET,AIRLOOPHVAC:RETURNPLENUM,VAV SYS 1 RETURN PLENUM,Inlet,1
 Non-Parent Node Connection,THERMAL ZONE: ZONE26 RETURN OUTLET,AIRLOOPHVAC:RETURNPLENUM,VAV SYS 1 RETURN PLENUM,Inlet,1
 Non-Parent Node Connection,THERMAL ZONE: ZONE27 RETURN OUTLET,AIRLOOPHVAC:RETURNPLENUM,VAV SYS 1 RETURN PLENUM,Inlet,1
 Non-Parent Node Connection,VAV SYS 1 MIXED AIR OUTLET,OUTDOORAIR:MIXER,VAV SYS 1 OA MIXING BOX,Outlet,1
 Non-Parent Node Connection,VAV SYS 1 OUTSIDE AIR INLET,OUTDOORAIR:MIXER,VAV SYS 1 OA MIXING BOX,Inlet,1
 Non-Parent Node Connection,VAV SYS 1 RELIEF AIR OUTLET,OUTDOORAIR:MIXER,VAV SYS 1 OA MIXING BOX,ReliefAir,1
 Non-Parent Node Connection,VAV SYS 1 RETURN FAN OUTLET,OUTDOORAIR:MIXER,VAV SYS 1 OA MIXING BOX,Inlet,1
 Non-Parent Node Connection,VAV SYS 1 AIR LOOP INLET,FAN:VARIABLEVOLUME,VAV SYS 1 RETURN FAN,Inlet,1
 Non-Parent Node Connection,VAV SYS 1 RETURN FAN OUTLET,FAN:VARIABLEVOLUME,VAV SYS 1 RETURN FAN,Outlet,1
 Non-Parent Node Connection,VAV SYS 1 HEATING COIL OUTLET,FAN:VARIABLEVOLUME,VAV SYS 1 SUPPLY FAN,Inlet,1
 Non-Parent Node Connection,VAV SYS 1 SUPPLY FAN OUTLET,FAN:VARIABLEVOLUME,VAV SYS 1 SUPPLY FAN,Outlet,1
 Non-Parent Node Connection,VAV SYS 1 MIXED AIR OUTLET,CONTROLLER:OUTDOORAIR,VAV SYS 1 OA CONTROLLER,Sensor,1
 Non-Parent Node Connection,VAV SYS 1 OUTSIDE AIR INLET,CONTROLLER:OUTDOORAIR,VAV SYS 1 OA CONTROLLER,Actuator,1
 Non-Parent Node Connection,VAV SYS 1 RELIEF AIR OUTLET,CONTROLLER:OUTDOORAIR,VAV SYS 1 OA CONTROLLER,Actuator,1
 Non-Parent Node Connection,VAV SYS 1 RETURN FAN OUTLET,CONTROLLER:OUTDOORAIR,VAV SYS 1 OA CONTROLLER,Sensor,1
 Non-Parent Node Connection,CHILLED WATER LOOP CNDW SUPPLY INLET,PUMP:VARIABLESPEED,CHILLED WATER LOOP CNDW SUPPLY PUMP,Inlet,1
 Non-Parent Node Connection,CHILLED WATER LOOP CNDW PUMP OUTLET,PUMP:VARIABLESPEED,CHILLED WATER LOOP CNDW SUPPLY PUMP,Outlet,1
 Non-Parent Node Connection,HOT WATER LOOP HW SUPPLY INLET,PUMP:CONSTANTSPEED,HOT WATER LOOP HW SUPPLY PUMP,Inlet,1
 Non-Parent Node Connection,HOT WATER LOOP HW PUMP OUTLET,PUMP:CONSTANTSPEED,HOT WATER LOOP HW SUPPLY PUMP,Outlet,1
 Non-Parent Node Connection,CHILLED WATER LOOP CHW SUPPLY INLET,PUMP:CONSTANTSPEED,CHILLED WATER LOOP CHW SUPPLY PUMP,Inlet,1
 Non-Parent Node Connection,CHILLED WATER LOOP CHW PUMP OUTLET,PUMP:CONSTANTSPEED,CHILLED WATER LOOP CHW SUPPLY PUMP,Outlet,1
